2024_89_CemigReconfigurationCases/1_SEsCemig_2/BETT305/BETT305SegmentosMT.dss
new line.SMT_10102667 bus1=BMT174833942.1.2.3,bus2=BMT98887406.1.2.3,Phases=3,Linecode=CAB103_3_3_3,Length=0.024091000,Units=km
new line.SMT_10269225 bus1=BMT180439518.3,bus2=BMT180439519.3,Phases=1,Linecode=CAB103_3_1_1,Length=0.037026000,Units=km
new line.SMT_10269232 bus1=BMT180439518.3,bus2=BMT6470256B.3,Phases=1,Linecode=CAB103_3_1_1,Length=0.085033000,Units=km
new line.SMT_10269239 bus1=BMT180439519.3,bus2=BMT2447222B.3,Phases=1,Linecode=CAB103_3_1_1,Length=0.037066000,Units=km
new line.SMT_10269253 bus1=BMT180439521.3,bus2=BMT180439522.3,Phases=1,Linecode=CAB202_3_1_1,Length=0.040025000,Units=km
new line.SMT_10269260 bus1=BMT180439522.3,bus2=BMT6470228B.3,Phases=1,Linecode=CAB103_3_1_1,Length=0.042593000,Units=km
new line.SMT_10269267 bus1=BMT6470228B.3,bus2=BMT180439523.3,Phases=1,Linecode=CAB103_3_1_1,Length=0.030604000,Units=km
new line.SMT_10269274 bus1=BMT180439523.3,bus2=BMT3254805B.3,Phases=1,Linecode=CAB202_3_1_1,Length=0.044613000,Units=km
new line.SMT_10269288 bus1=BMT6470249B.3,bus2=BMT6470291B.3,Phases=1,Linecode=CAB103_3_1_1,Length=0.038301000,Units=km
new line.SMT_10269295 bus1=BMT6470256B.3,bus2=BMT180439520.3,Phases=1,Linecode=CAB103_3_1_1,Length=0.066051000,Units=km
new line.SMT_10269302 bus1=BMT180439520.3,bus2=BMT6470249B.3,Phases=1,Linecode=CAB103_3_1_1,Length=0.049046000,Units=km
new line.SMT_10269309 bus1=BMT6470270B.3,bus2=BMT170124586.3,Phases=1,Linecode=CAB103_3_1_1,Length=0.051495000,Units=km
new line.SMT_10269316 bus1=BMT6470277B.3,bus2=BMT6470270B.3,Phases=1,Linecode=CAB103_3_1_1,Length=0.058156000,Units=km
new line.SMT_10269323 bus1=BMT6470284B.3,bus2=BMT6470277B.3,Phases=1,Linecode=CAB103_3_1_1,Length=0.047775000,Units=km
new line.SMT_10269330 bus1=BMT6470291B.3,bus2=BMT6470284B.3,Phases=1,Linecode=CAB103_3_1_1,Length=0.044297000,Units=km
new line.SMT_10269337 bus1=BMT170124633.3,bus2=BMT6470711B.3,Phases=1,Linecode=CABA06_3_1_1,Length=0.051640000,Units=km
new line.SMT_10269344 bus1=BMT170124633.3,bus2=BMT6470858B.3,Phases=1,Linecode=CABA06_3_1_1,Length=0.044568000,Units=km
new line.SMT_10269351 bus1=BMT6470305B.3,bus2=BMT6470361B.3,Phases=1,Linecode=CABA06_3_1_1,Length=0.049665000,Units=km
new line.SMT_10269358 bus1=BMT6470312B.3,bus2=BMT6470305B.3,Phases=1,Linecode=CABA06_3_1_1,Length=0.050623000,Units=km
new line.SMT_10269365 bus1=BMT6470319B.3,bus2=BMT170124632.3,Phases=1,Linecode=CABA06_3_1_1,Length=0.051988000,Units=km
new line.SMT_10269372 bus1=BMT6470326B.3,bus2=BMT6470319B.3,Phases=1,Linecode=CABA06_3_1_1,Length=0.049108000,Units=km
new line.SMT_10269379 bus1=BMT6470333B.3,bus2=BMT6470326B.3,Phases=1,Linecode=CABA06_3_1_1,Length=0.050236000,Units=km
new line.SMT_10269386 bus1=BMT170124631.3,bus2=BMT6470354B.3,Phases=1,Linecode=CABA06_3_1_1,Length=0.052495000,Units=km
new line.SMT_10269393 bus1=BMT170124632.3,bus2=BMT6470312B.3,Phases=1,Linecode=CABA06_3_1_1,Length=0.052790000,Units=km
new line.SMT_10269400 bus1=BMT6470354B.3,bus2=BMT6470333B.3,Phases=1,Linecode=CABA06_3_1_1,Length=0.050583000,Units=km
new line.SMT_10269407 bus1=BMT6470361B.3,bus2=BMT170124633.3,Phases=1,Linecode=CABA06_3_1_1,Length=0.051417000,Units=km
new line.SMT_10269638 bus1=BMT6470711B.3,bus2=BMT6470732B.3,Phases=1,Linecode=CABA06_3_1_1,Length=0.050345000,Units=km
new line.SMT_10269652 bus1=BMT6470732B.3,bus2=BMT6470809B.3,Phases=1,Linecode=CABA06_3_1_1,Length=0.038431000,Units=km
new line.SMT_10269722 bus1=BMT6470809B.3,bus2=BMT6470816B.3,Phases=1,Linecode=CABA06_3_1_1,Length=0.040621000,Units=km
new line.SMT_10269729 bus1=BMT6470816B.3,bus2=BMT6470823B.3,Phases=1,Linecode=CABA06_3_1_1,Length=0.057647000,Units=km
new line.SMT_10269736 bus1=BMT6470823B.3,bus2=BMT170124634.3,Phases=1,Linecode=CABA06_3_1_1,Length=0.057027000,Units=km
new line.SMT_10269743 bus1=BMT6470858B.3,bus2=BMT6470865B.3,Phases=1,Linecode=CABA06_3_1_1,Length=0.047901000,Units=km
new line.SMT_10269750 bus1=BMT6470865B.3,bus2=BMT6470872B.3,Phases=1,Linecode=CABA06_3_1_1,Length=0.049695000,Units=km
new line.SMT_10269757 bus1=BMT6470872B.3,bus2=BMT170124635.3,Phases=1,Linecode=CABA06_3_1_1,Length=0.051417000,Units=km
new line.SMT_10269764 bus1=BMT170124635.3,bus2=BMT6470900B.3,Phases=1,Linecode=CABA06_3_1_1,Length=0.055090000,Units=km
new line.SMT_10269778 bus1=BMT6470900B.3,bus2=BMT6470907B.3,Phases=1,Linecode=CABA06_3_1_1,Length=0.049665000,Units=km
new line.SMT_10269785 bus1=BMT6470907B.3,bus2=BMT6470914B.3,Phases=1,Linecode=CABA06_3_1_1,Length=0.053017000,Units=km
new line.SMT_10269792 bus1=BMT6470914B.3,bus2=BMT6470949B.3,Phases=1,Linecode=CABA06_3_1_1,Length=0.052371000,Units=km
new line.SMT_10269827 bus1=BMT6470949B.3,bus2=BMT6470956B.3,Phases=1,Linecode=CABA06_3_1_1,Length=0.052257000,Units=km
new line.SMT_10269834 bus1=BMT6470956B.3,bus2=BMT6470963B.3,Phases=1,Linecode=CABA06_3_1_1,Length=0.054762000,Units=km
new line.SMT_10269841 bus1=BMT6470963B.3,bus2=BMT6470977B.3,Phases=1,Linecode=CABA06_3_1_1,Length=0.054689000,Units=km
new line.SMT_10269848 bus1=BMT6470977B.3,bus2=BMT6470984B.3,Phases=1,Linecode=CABA06_3_1_1,Length=0.047817000,Units=km
new line.SMT_10269855 bus1=BMT6470984B.3,bus2=BMT6471005B.3,Phases=1,Linecode=CABA06_3_1_1,Length=0.053832000,Units=km
new line.SMT_10269862 bus1=BMT6471005B.3,bus2=BMT6471026B.3,Phases=1,Linecode=CABA06_3_1_1,Length=0.053776000,Units=km
new line.SMT_10269869 bus1=BMT6471026B.3,bus2=BMT6471033B.3,Phases=1,Linecode=CABA06_3_1_1,Length=0.039938000,Units=km
new line.SMT_10458442 bus1=BMT98873840.1.2.3,bus2=BMT98873847.1.2.3,Phases=3,Linecode=CAB103_3_3_3,Length=0.009490000,Units=km
new line.SMT_10458484 bus1=BMT98873847.1.2.3,bus2=BMT98873854.1.2.3,Phases=3,Linecode=CABA06_3_3_3,Length=0.042204000,Units=km
new line.SMT_10458575 bus1=BMT98873847.2,bus2=BMT98873861.2,Phases=1,Linecode=CAB103_3_1_1,Length=0.036234000,Units=km
new line.SMT_10458582 bus1=BMT98873868.2,bus2=BMT6719925B.2,Phases=1,Linecode=CAB103_3_1_1,Length=0.041208000,Units=km
new line.SMT_10458589 bus1=BMT6719925B.2,bus2=BMT6719946B.2,Phases=1,Linecode=CAB103_3_1_1,Length=0.054936000,Units=km
new line.SMT_10458610 bus1=BMT6719946B.2,bus2=BMT6719953B.2,Phases=1,Linecode=CAB103_3_1_1,Length=0.055127000,Units=km
new line.SMT_10458624 bus1=BMT6719953B.2,bus2=BMT6719960B.2,Phases=1,Linecode=CAB103_3_1_1,Length=0.032073000,Units=km
new line.SMT_10458631 bus1=BMT6719960B.2,bus2=BMT6719988B.2,Phases=1,Linecode=CAB103_3_1_1,Length=0.059433000,Units=km
new line.SMT_10458645 bus1=BMT6719988B.2,bus2=BMT6720002B.2,Phases=1,Linecode=CAB103_3_1_1,Length=0.039712000,Units=km
new line.SMT_10458652 bus1=BMT6720002B.2,bus2=BMT98873875.2,Phases=1,Linecode=CAB103_3_1_1,Length=0.039636000,Units=km
new line.SMT_10458729 bus1=BMT98873875.2,bus2=BMT6720044B.2,Phases=1,Linecode=CAB103_3_1_1,Length=0.058917000,Units=km
new line.SMT_10458743 bus1=BMT6720044B.2,bus2=BMT6720051B.2,Phases=1,Linecode=CAB103_3_1_1,Length=0.043946000,Units=km
new line.SMT_10458771 bus1=BMT6720051B.2,bus2=BMT6720086B.2,Phases=1,Linecode=CAB103_3_1_1,Length=0.042535000,Units=km
new line.SMT_10458778 bus1=BMT6720086B.2,bus2=BMT6720093B.2,Phases=1,Linecode=CAB103_3_1_1,Length=0.045270000,Units=km
new line.SMT_10458785 bus1=BMT6720093B.2,bus2=BMT6720121B.2,Phases=1,Linecode=CAB103_3_1_1,Length=0.035026000,Units=km
new line.SMT_10458792 bus1=BMT6720121B.2,bus2=BMT6720128B.2,Phases=1,Linecode=CAB103_3_1_1,Length=0.035126000,Units=km
new line.SMT_10458799 bus1=BMT6720128B.2,bus2=BMT6720135B.2,Phases=1,Linecode=CAB103_3_1_1,Length=0.044959000,Units=km
new line.SMT_10459009 bus1=BMT6720135B.2,bus2=BMT6720275B.2,Phases=1,Linecode=CAB103_3_1_1,Length=0.055732000,Units=km
new line.SMT_10459016 bus1=BMT6720275B.2,bus2=BMT6720282B.2,Phases=1,Linecode=CAB103_3_1_1,Length=0.049057000,Units=km
new line.SMT_10459023 bus1=BMT6720282B.2,bus2=BMT6720366B.2,Phases=1,Linecode=CAB103_3_1_1,Length=0.062670000,Units=km
new line.SMT_10459030 bus1=BMT6720366B.2,bus2=BMT6720359B.2,Phases=1,Linecode=CAB103_3_1_1,Length=0.029421000,Units=km
new line.SMT_10459037 bus1=BMT6720359B.2,bus2=BMT6720338B.2,Phases=1,Linecode=CAB103_3_1_1,Length=0.043200000,Units=km
new line.SMT_10459044 bus1=BMT6720338B.2,bus2=BMT6720345B.2,Phases=1,Linecode=CAB103_3_1_1,Length=0.033072000,Units=km
new line.SMT_10459051 bus1=BMT6720345B.2,bus2=BMT6720324B.2,Phases=1,Linecode=CAB103_3_1_1,Length=0.013158000,Units=km
new line.SMT_10459058 bus1=BMT6720324B.2,bus2=BMT6720317B.2,Phases=1,Linecode=CAB103_3_1_1,Length=0.020132000,Units=km
new line.SMT_10459065 bus1=BMT6720317B.2,bus2=BMT98873882.2,Phases=1,Linecode=CAB103_3_1_1,Length=0.032026000,Units=km
new line.SMT_10459079 bus1=BMT98873882.2,bus2=BMT6720303B.2,Phases=1,Linecode=CAB103_3_1_1,Length=0.037549000,Units=km
new line.SMT_10459086 bus1=BMT6720303B.2,bus2=BMT6720296B.2,Phases=1,Linecode=CAB103_3_1_1,Length=0.040867000,Units=km
new line.SMT_10459100 bus1=BMT6720296B.2,bus2=BMT98873889.2,Phases=1,Linecode=CAB103_3_1_1,Length=0.038013000,Units=km
new line.SMT_10459149 bus1=BMT98873889.2,bus2=BMT6720492B.2,Phases=1,Linecode=CAB103_3_1_1,Length=0.046770000,Units=km
new line.SMT_10459156 bus1=BMT98873889.2,bus2=BMT6720506B.2,Phases=1,Linecode=CAB103_3_1_1,Length=0.052486000,Units=km
new line.SMT_10459163 bus1=BMT6720506B.2,bus2=BMT6720513B.2,Phases=1,Linecode=CAB103_3_1_1,Length=0.052790000,Units=km
new line.SMT_10459184 bus1=BMT6720513B.2,bus2=BMT6720520B.2,Phases=1,Linecode=CAB103_3_1_1,Length=0.049271000,Units=km
new line.SMT_10459198 bus1=BMT6720520B.2,bus2=BMT6720527B.2,Phases=1,Linecode=CAB103_3_1_1,Length=0.045413000,Units=km
new line.SMT_10459226 bus1=BMT6720492B.2,bus2=BMT6720499B.2,Phases=1,Linecode=CAB103_3_1_1,Length=0.045982000,Units=km
new line.SMT_10459233 bus1=BMT6720499B.2,bus2=BMT6720590B.2,Phases=1,Linecode=CAB103_3_1_1,Length=0.046706000,Units=km
new line.SMT_10459240 bus1=BMT6720590B.2,bus2=BMT6720597B.2,Phases=1,Linecode=CAB103_3_1_1,Length=0.029165000,Units=km
new line.SMT_10459261 bus1=BMT6720597B.2,bus2=BMT6720618B.2,Phases=1,Linecode=CAB103_3_1_1,Length=0.040238000,Units=km
new line.SMT_10459268 bus1=BMT6720618B.2,bus2=BMT6720625B.2,Phases=1,Linecode=CAB103_3_1_1,Length=0.041354000,Units=km
new line.SMT_10459289 bus1=BMT6720625B.2,bus2=BMT6720646B.2,Phases=1,Linecode=CAB103_3_1_1,Length=0.021220000,Units=km
new line.SMT_10459317 bus1=BMT6720646B.2,bus2=BMT6720660B.2,Phases=1,Linecode=CAB103_3_1_1,Length=0.042652000,Units=km
new line.SMT_10459324 bus1=BMT6720660B.2,bus2=BMT6720674B.2,Phases=1,Linecode=CAB103_3_1_1,Length=0.044613000,Units=km
new line.SMT_10459345 bus1=BMT6720674B.2,bus2=BMT6720695B.2,Phases=1,Linecode=CAB103_3_1_1,Length=0.038223000,Units=km
new line.SMT_10459429 bus1=BMT6720695B.2,bus2=BMT6720730B.2,Phases=1,Linecode=CAB103_3_1_1,Length=0.045468000,Units=km
new line.SMT_10459457 bus1=BMT6720730B.2,bus2=BMT6720772B.2,Phases=1,Linecode=CAB103_3_1_1,Length=0.041062000,Units=km
new line.SMT_10248596 bus1=BMT6438742B.1.2.3,bus2=BMT6438756B.1.2.3,Phases=3,Linecode=CABA08_3_3_3,Length=0.037025000,Units=km
new line.SMT_10248603 bus1=BMT6438749B.1.2.3,bus2=BMT6438742B.1.2.3,Phases=3,Linecode=CABA08_3_3_3,Length=0.035522000,Units=km
new line.SMT_10248610 bus1=BMT6438756B.1.2.3,bus2=BMT6438763B.1.2.3,Phases=3,Linecode=CABA08_3_3_3,Length=0.038012000,Units=km
new line.SMT_10248617 bus1=BMT6438763B.1.2.3,bus2=BMT6438770B.1.2.3,Phases=3,Linecode=CABA08_3_3_3,Length=0.039025000,Units=km
new line.SMT_10262638 bus1=BMT177612154.1.2.3,bus2=BMT6459455B.1.2.3,Phases=3,Linecode=CAB104_3_3_3,Length=0.009437000,Units=km
new line.SMT_10262645 bus1=BMT6459448B.1.2.3,bus2=BMT98871516.1.2.3,Phases=3,Linecode=CAB104_3_3_3,Length=0.008547000,Units=km
new line.SMT_10410926 bus1=BMT183205505.1.2.3,bus2=BMT98886706.1.2.3,Phases=3,Linecode=CABA06_3_3_3,Length=0.008547000,Units=km
new line.SMT_10411717 bus1=BMT150339000.1.2.3,bus2=BMT6669336B.1.2.3,Phases=3,Linecode=CAB401_3_3_3,Length=0.004244000,Units=km
new line.SMT_10411724 bus1=BMT6669336B.1.2.3,bus2=BMT150339001.1.2.3,Phases=3,Linecode=CAB401_3_3_3,Length=0.009903000,Units=km
new line.SMT_10413362 bus1=BMT56526B.1.2.3,bus2=BMT56533B.1.2.3,Phases=3,Linecode=CABA06_3_3_3,Length=0.030686000,Units=km
new line.SMT_10413369 bus1=BMT56533B.1.2.3,bus2=BMT98854135.1.2.3,Phases=3,Linecode=CABA06_3_3_3,Length=0.030093000,Units=km
new line.SMT_10674462 bus1=BMT246338B.1.2.3,bus2=BMT183718888.1.2.3,Phases=3,Linecode=CABA08_3_3_3,Length=0.010053000,Units=km
new line.SMT_10674469 bus1=BMT183718888.1.2.3,bus2=BMT183718887.1.2.3,Phases=3,Linecode=CABA08_3_3_3,Length=0.017123000,Units=km
new line.SMT_10682176 bus1=BMT183105283.1.2.3,bus2=BMT98880140.1.2.3,Phases=3,Linecode=CABA06_3_3_3,Length=0.052448000,Units=km
new line.SMT_10682190 bus1=BMT157171331.1.2.3,bus2=BMT6944625B.1.2.3,Phases=3,Linecode=CABA06_3_3_3,Length=0.066422000,Units=km
new line.SMT_10682211 bus1=BMT6944625B.1.2.3,bus2=BMT6944646B.1.2.3,Phases=3,Linecode=CABA06_3_3_3,Length=0.052648000,Units=km
new line.SMT_10682260 bus1=BMT6944646B.1.2.3,bus2=BMT157171332.1.2.3,Phases=3,Linecode=CABA06_3_3_3,Length=0.037868000,Units=km
new line.SMT_10682288 bus1=BMT157171332.1.2.3,bus2=BMT6944716B.1.2.3,Phases=3,Linecode=CABA06_3_3_3,Length=0.062004000,Units=km
new line.SMT_10682295 bus1=BMT6944716B.1.2.3,bus2=BMT6944737B.1.2.3,Phases=3,Linecode=CABA06_3_3_3,Length=0.062004000,Units=km
new line.SMT_10682302 bus1=BMT157171332.1.2.3,bus2=BMT157171334.1.2.3,Phases=3,Linecode=CAB103_3_3_3,Length=0.015817000,Units=km
new line.SMT_10682323 bus1=BMT6944737B.1.2.3,bus2=BMT6944800B.1.2.3,Phases=3,Linecode=CABA06_3_3_3,Length=0.062989000,Units=km
new line.SMT_10682351 bus1=BMT6944800B.1.2.3,bus2=BMT6944807B.1.2.3,Phases=3,Linecode=CABA06_3_3_3,Length=0.062535000,Units=km
new line.SMT_10682386 bus1=BMT6944807B.1.2.3,bus2=BMT6944828B.1.2.3,Phases=3,Linecode=CABA06_3_3_3,Length=0.055054000,Units=km
new line.SMT_10682393 bus1=BMT6944828B.1.2.3,bus2=BMT6944835B.1.2.3,Phases=3,Linecode=CABA06_3_3_3,Length=0.055489000,Units=km
new line.SMT_10682407 bus1=BMT6944835B.1.2.3,bus2=BMT6944842B.1.2.3,Phases=3,Linecode=CABA06_3_3_3,Length=0.047397000,Units=km
new line.SMT_10682428 bus1=BMT6944842B.1.2.3,bus2=BMT6944856B.1.2.3,Phases=3,Linecode=CABA06_3_3_3,Length=0.050226000,Units=km
new line.SMT_10682442 bus1=BMT6944856B.1.2.3,bus2=BMT6944870B.1.2.3,Phases=3,Linecode=CABA06_3_3_3,Length=0.049665000,Units=km
new line.SMT_10682449 bus1=BMT6944870B.1.2.3,bus2=BMT6944877B.1.2.3,Phases=3,Linecode=CABA06_3_3_3,Length=0.050791000,Units=km
new line.SMT_10682470 bus1=BMT6944877B.1.2.3,bus2=BMT6944884B.1.2.3,Phases=3,Linecode=CABA06_3_3_3,Length=0.049413000,Units=km
new line.SMT_10682484 bus1=BMT6944884B.1.2.3,bus2=BMT6944912B.1.2.3,Phases=3,Linecode=CABA06_3_3_3,Length=0.049946000,Units=km
new line.SMT_10682491 bus1=BMT6944912B.1.2.3,bus2=BMT6944919B.1.2.3,Phases=3,Linecode=CABA06_3_3_3,Length=0.051330000,Units=km
new line.SMT_10682498 bus1=BMT6944919B.1.2.3,bus2=BMT6944954B.1.2.3,Phases=3,Linecode=CABA06_3_3_3,Length=0.054221000,Units=km
new line.SMT_10682526 bus1=BMT6944954B.1.2.3,bus2=BMT6944982B.1.2.3,Phases=3,Linecode=CABA06_3_3_3,Length=0.057647000,Units=km
new line.SMT_10682540 bus1=BMT6944982B.1.2.3,bus2=BMT6944996B.1.2.3,Phases=3,Linecode=CABA06_3_3_3,Length=0.068030000,Units=km
new line.SMT_10682547 bus1=BMT6944996B.1.2.3,bus2=BMT6945003B.1.2.3,Phases=3,Linecode=CABA06_3_3_3,Length=0.049756000,Units=km
new line.SMT_10682561 bus1=BMT6945003B.1.2.3,bus2=BMT6945010B.1.2.3,Phases=3,Linecode=CABA06_3_3_3,Length=0.049261000,Units=km
new line.SMT_10682610 bus1=BMT6945010B.1.2.3,bus2=BMT6945017B.1.2.3,Phases=3,Linecode=CABA06_3_3_3,Length=0.047818000,Units=km
new line.SMT_10682624 bus1=BMT6945017B.1.2.3,bus2=BMT6945024B.1.2.3,Phases=3,Linecode=CABA06_3_3_3,Length=0.031027000,Units=km
new line.SMT_10682645 bus1=BMT6945024B.1.2.3,bus2=BMT6945038B.1.2.3,Phases=3,Linecode=CABA06_3_3_3,Length=0.031252000,Units=km
new line.SMT_10682652 bus1=BMT6945038B.1.2.3,bus2=BMT6945059B.1.2.3,Phases=3,Linecode=CABA06_3_3_3,Length=0.049836000,Units=km
new line.SMT_10682666 bus1=BMT6945059B.1.2.3,bus2=BMT6945080B.1.2.3,Phases=3,Linecode=CABA06_3_3_3,Length=0.059096000,Units=km
new line.SMT_10682680 bus1=BMT6945080B.1.2.3,bus2=BMT6945087B.1.2.3,Phases=3,Linecode=CABA06_3_3_3,Length=0.036261000,Units=km
new line.SMT_10682708 bus1=BMT6945087B.1.2.3,bus2=BMT6945094B.1.2.3,Phases=3,Linecode=CABA06_3_3_3,Length=0.055920000,Units=km
new line.SMT_10682715 bus1=BMT6945094B.1.2.3,bus2=BMT6945101B.1.2.3,Phases=3,Linecode=CABA06_3_3_3,Length=0.053553000,Units=km
new line.SMT_10682729 bus1=BMT6945101B.1.2.3,bus2=BMT6945108B.1.2.3,Phases=3,Linecode=CABA06_3_3_3,Length=0.046545000,Units=km
new line.SMT_10356893 bus1=BMT167782676.1.2.3,bus2=BMT167782677.1.2.3,Phases=3,Linecode=CAB108_3_3_3,Length=0.790960000,Units=km
new line.SMT_10356900 bus1=BMT167782677.1.2.3,bus2=BMT167782678.1.2.3,Phases=3,Linecode=CAB108_3_3_3,Length=0.113054000,Units=km
new line.SMT_10575181 bus1=BMT98873434.2,bus2=BMT6836062B.2,Phases=1,Linecode=CAB103_3_1_1,Length=0.036247000,Units=km
new line.SMT_10575209 bus1=BMT6836062B.2,bus2=BMT6836076B.2,Phases=1,Linecode=CAB103_3_1_1,Length=0.039838000,Units=km
new line.SMT_10575216 bus1=BMT6836076B.2,bus2=BMT6836097B.2,Phases=1,Linecode=CAB103_3_1_1,Length=0.078518000,Units=km
new line.SMT_10575223 bus1=BMT6836097B.2,bus2=BMT6836104B.2,Phases=1,Linecode=CAB103_3_1_1,Length=0.056631000,Units=km
new line.SMT_10575230 bus1=BMT6836104B.2,bus2=BMT6836125B.2,Phases=1,Linecode=CAB103_3_1_1,Length=0.068499000,Units=km
new line.SMT_10575251 bus1=BMT6836125B.2,bus2=BMT6836139B.2,Phases=1,Linecode=CAB103_3_1_1,Length=0.072030000,Units=km
new line.SMT_10575258 bus1=BMT6836139B.2,bus2=BMT6836153B.2,Phases=1,Linecode=CAB103_3_1_1,Length=0.044937000,Units=km
new line.SMT_10575272 bus1=BMT6836153B.2,bus2=BMT98873448.2,Phases=1,Linecode=CAB103_3_1_1,Length=0.036509000,Units=km
new line.SMT_10830506 bus1=BMT98873434.2,bus2=BMT7082546B.2,Phases=1,Linecode=CAB103_3_1_1,Length=0.071891000,Units=km
new line.SMT_10830513 bus1=BMT7082546B.2,bus2=BMT7082553B.2,Phases=1,Linecode=CAB103_3_1_1,Length=0.058611000,Units=km
new line.SMT_10830520 bus1=BMT7082553B.2,bus2=BMT7082560B.2,Phases=1,Linecode=CAB103_3_1_1,Length=0.058071000,Units=km
new line.SMT_10830527 bus1=BMT7082560B.2,bus2=BMT7082567B.2,Phases=1,Linecode=CAB103_3_1_1,Length=0.061737000,Units=km
new line.SMT_10830534 bus1=BMT7082567B.2,bus2=BMT7082574B.2,Phases=1,Linecode=CAB103_3_1_1,Length=0.049108000,Units=km
new line.SMT_10830541 bus1=BMT7082574B.2,bus2=BMT7082581B.2,Phases=1,Linecode=CAB103_3_1_1,Length=0.078128000,Units=km
new line.SMT_10830548 bus1=BMT7082581B.2,bus2=BMT7082588B.2,Phases=1,Linecode=CAB103_3_1_1,Length=0.043281000,Units=km
new line.SMT_10830555 bus1=BMT7082588B.2,bus2=BMT7082595B.2,Phases=1,Linecode=CAB103_3_1_1,Length=0.082161000,Units=km
new line.SMT_10830562 bus1=BMT7082595B.2,bus2=BMT7082602B.2,Phases=1,Linecode=CAB103_3_1_1,Length=0.060228000,Units=km
new line.SMT_10830569 bus1=BMT7082602B.2,bus2=BMT98873455.2,Phases=1,Linecode=CAB103_3_1_1,Length=0.050623000,Units=km
new line.SMT_10836813 bus1=BMT234557B.1.2.3,bus2=BMT158502382.1.2.3,Phases=3,Linecode=CABA06_3_3_3,Length=0.018607000,Units=km
new line.SMT_10836820 bus1=BMT158502383.1.2.3,bus2=BMT158476915.1.2.3,Phases=3,Linecode=CABA06_3_3_3,Length=0.021408000,Units=km
new line.SMT_11103877 bus1=BMT182813290.1.2.3,bus2=BMT315792B.1.2.3,Phases=3,Linecode=CABA08_3_3_3,Length=0.032568000,Units=km
new line.SMT_11103884 bus1=BMT315792B.1.2.3,bus2=BMT315799B.1.2.3,Phases=3,Linecode=CABA08_3_3_3,Length=0.038222000,Units=km
new line.SMT_11103891 bus1=BMT315799B.1.2.3,bus2=BMT315806B.1.2.3,Phases=3,Linecode=CABA08_3_3_3,Length=0.036081000,Units=km
new line.SMT_11103905 bus1=BMT315806B.1.2.3,bus2=BMT315813B.1.2.3,Phases=3,Linecode=CABA08_3_3_3,Length=0.037495000,Units=km
new line.SMT_11103912 bus1=BMT315813B.1.2.3,bus2=BMT315820B.1.2.3,Phases=3,Linecode=CABA08_3_3_3,Length=0.036808000,Units=km
new line.SMT_11103926 bus1=BMT315827B.1.2.3,bus2=BMT3234393B.1.2.3,Phases=3,Linecode=CABA08_3_3_3,Length=0.037133000,Units=km
new line.SMT_11103947 bus1=BMT3234393B.1.2.3,bus2=BMT3234379B.1.2.3,Phases=3,Linecode=CABA08_3_3_3,Length=0.036781000,Units=km
new line.SMT_11103954 bus1=BMT3234379B.1.2.3,bus2=BMT3234386B.1.2.3,Phases=3,Linecode=CABA08_3_3_3,Length=0.025247000,Units=km
new line.SMT_11104255 bus1=BMT3234386B.1.2.3,bus2=BMT7294310B.1.2.3,Phases=3,Linecode=CABA08_3_3_3,Length=0.028311000,Units=km
new line.SMT_11104262 bus1=BMT7294310B.1.2.3,bus2=BMT7294317B.1.2.3,Phases=3,Linecode=CABA08_3_3_3,Length=0.029976000,Units=km
new line.SMT_11104269 bus1=BMT7294317B.1.2.3,bus2=BMT7294331B.1.2.3,Phases=3,Linecode=CABA08_3_3_3,Length=0.029078000,Units=km
new line.SMT_11104276 bus1=BMT7294331B.1.2.3,bus2=BMT7294373B.1.2.3,Phases=3,Linecode=CABA08_3_3_3,Length=0.046415000,Units=km
new line.SMT_11104283 bus1=BMT7294373B.1.2.3,bus2=BMT182813291.1.2.3,Phases=3,Linecode=CABA08_3_3_3,Length=0.055017000,Units=km
new line.SMT_11104290 bus1=BMT182813291.1.2.3,bus2=BMT7294359B.1.2.3,Phases=3,Linecode=CABA08_3_3_3,Length=0.035239000,Units=km
new line.SMT_11104325 bus1=BMT7294359B.1.2.3,bus2=BMT7324109B.1.2.3,Phases=3,Linecode=CABA08_3_3_3,Length=0.045501000,Units=km
new line.SMT_11104332 bus1=BMT7324109B.1.2.3,bus2=BMT7295024B.1.2.3,Phases=3,Linecode=CABA08_3_3_3,Length=0.028311000,Units=km
new line.SMT_11104689 bus1=BMT182813292.1.2.3,bus2=BMT7295255B.1.2.3,Phases=3,Linecode=CABA08_3_3_3,Length=0.031633000,Units=km
new line.SMT_11104717 bus1=BMT7295255B.1.2.3,bus2=BMT7295304B.1.2.3,Phases=3,Linecode=CABA08_3_3_3,Length=0.035239000,Units=km
new line.SMT_11104724 bus1=BMT7295304B.1.2.3,bus2=BMT7295311B.1.2.3,Phases=3,Linecode=CABA08_3_3_3,Length=0.040621000,Units=km
new line.SMT_11104738 bus1=BMT7295311B.1.2.3,bus2=BMT7295318B.1.2.3,Phases=3,Linecode=CABA08_3_3_3,Length=0.035816000,Units=km
new line.SMT_11104752 bus1=BMT7295318B.1.2.3,bus2=BMT7295339B.1.2.3,Phases=3,Linecode=CABA08_3_3_3,Length=0.038025000,Units=km
new line.SMT_11104759 bus1=BMT7295339B.1.2.3,bus2=BMT7295346B.1.2.3,Phases=3,Linecode=CABA08_3_3_3,Length=0.041894000,Units=km
new line.SMT_11104773 bus1=BMT7295346B.1.2.3,bus2=BMT7324669B.1.2.3,Phases=3,Linecode=CABA08_3_3_3,Length=0.032026000,Units=km
new line.SMT_11104801 bus1=BMT7324669B.1.2.3,bus2=BMT7324592B.1.2.3,Phases=3,Linecode=CABA08_3_3_3,Length=0.031901000,Units=km
new line.SMT_11104815 bus1=BMT7324592B.1.2.3,bus2=BMT7324599B.1.2.3,Phases=3,Linecode=CABA08_3_3_3,Length=0.033132000,Units=km
new line.SMT_11104822 bus1=BMT7324599B.1.2.3,bus2=BMT7324606B.1.2.3,Phases=3,Linecode=CABA08_3_3_3,Length=0.042967000,Units=km
new line.SMT_11105837 bus1=BMT7324606B.1.2.3,bus2=BMT7323976B.1.2.3,Phases=3,Linecode=CABA08_3_3_3,Length=0.050175000,Units=km
new line.SMT_11105844 bus1=BMT7323976B.1.2.3,bus2=BMT7323962B.1.2.3,Phases=3,Linecode=CABA08_3_3_3,Length=0.044735000,Units=km
new line.SMT_11105851 bus1=BMT7323962B.1.2.3,bus2=BMT7323955B.1.2.3,Phases=3,Linecode=CABA08_3_3_3,Length=0.048770000,Units=km
new line.SMT_11105858 bus1=BMT7323955B.1.2.3,bus2=BMT7323948B.1.2.3,Phases=3,Linecode=CABA08_3_3_3,Length=0.045895000,Units=km
new line.SMT_11105865 bus1=BMT7323948B.1.2.3,bus2=BMT7323934B.1.2.3,Phases=3,Linecode=CABA08_3_3_3,Length=0.041774000,Units=km
new line.SMT_11105886 bus1=BMT7323934B.1.2.3,bus2=BMT7323920B.1.2.3,Phases=3,Linecode=CABA08_3_3_3,Length=0.042967000,Units=km
new line.SMT_11105893 bus1=BMT7323920B.1.2.3,bus2=BMT7323899B.1.2.3,Phases=3,Linecode=CABA08_3_3_3,Length=0.047025000,Units=km
new line.SMT_11105921 bus1=BMT7323899B.1.2.3,bus2=BMT7323892B.1.2.3,Phases=3,Linecode=CABA08_3_3_3,Length=0.049178000,Units=km
new line.SMT_11105942 bus1=BMT7323892B.1.2.3,bus2=BMT7323878B.1.2.3,Phases=3,Linecode=CABA08_3_3_3,Length=0.048098000,Units=km
new line.SMT_11105949 bus1=BMT7323878B.1.2.3,bus2=BMT7323864B.1.2.3,Phases=3,Linecode=CABA08_3_3_3,Length=0.047025000,Units=km
new line.SMT_11105956 bus1=BMT7323864B.1.2.3,bus2=BMT7323850B.1.2.3,Phases=3,Linecode=CABA08_3_3_3,Length=0.042215000,Units=km
new line.SMT_11105963 bus1=BMT7323850B.1.2.3,bus2=BMT7323843B.1.2.3,Phases=3,Linecode=CABA08_3_3_3,Length=0.041738000,Units=km
new line.SMT_11105970 bus1=BMT7323843B.1.2.3,bus2=BMT7323836B.1.2.3,Phases=3,Linecode=CABA08_3_3_3,Length=0.041630000,Units=km
new line.SMT_11105977 bus1=BMT7323836B.1.2.3,bus2=BMT7323829B.1.2.3,Phases=3,Linecode=CABA08_3_3_3,Length=0.039975000,Units=km
new line.SMT_11105984 bus1=BMT7323829B.1.2.3,bus2=BMT7323815B.1.2.3,Phases=3,Linecode=CABA08_3_3_3,Length=0.040262000,Units=km
new line.SMT_11105991 bus1=BMT7323815B.1.2.3,bus2=BMT7323808B.1.2.3,Phases=3,Linecode=CABA08_3_3_3,Length=0.046080000,Units=km
new line.SMT_11105998 bus1=BMT7323808B.1.2.3,bus2=BMT7323801B.1.2.3,Phases=3,Linecode=CABA08_3_3_3,Length=0.042203000,Units=km
...
