2024_89_CemigReconfigurationCases/1_SEsCemig_2/BETT305/BETT305Transformadores.dss
new transformer.TRF_100983A Phases=1,Windings=3,Buses=[BMT177046073.1 973365.1.0 973365.0.2],Conns=[wye wye wye],kvs=[7.967 0.12 0.12],kvas=[5.000000000 5.000000000 5.000000000],Taps=[1,1.000000000,1.000000000],XHL=1.625000000,XHT=1.625000000,XLT=1.300000000,%loadloss=1.900000000,%noloadloss=0.600000000 !5291
new transformer.TRF_102880 Phases=3,Windings=2,Buses=[BMT150649230.1.2.3 991614.1.2.3.0],Conns=[delta,wye],kvs=[13.800000000,0.220000000],kvas=[45.000000000 45.000000000],Taps=[1,1.000000000],XHL=3.700000000,%loadloss=1.520000000,%noloadloss=0.377777000 !403448
new transformer.TRF_104868A Phases=1,Windings=3,Buses=[BMT183161199.3 1005761.1.0 1005761.0.2],Conns=[wye wye wye],kvs=[7.967 0.12 0.12],kvas=[5.000000000 5.000000000 5.000000000],Taps=[1,1.000000000,1.000000000],XHL=1.625000000,XHT=1.625000000,XLT=1.300000000,%loadloss=1.900000000,%noloadloss=0.600000000 !5612
new transformer.TRF_104917A Phases=1,Windings=3,Buses=[BMT165509280.2 1006118.1.0 1006118.0.2],Conns=[wye wye wye],kvs=[7.967 0.12 0.12],kvas=[15.000000000 15.000000000 15.000000000],Taps=[1,1.000000000,1.000000000],XHL=1.921000000,XHT=1.921000000,XLT=1.537000000,%loadloss=1.600000000,%noloadloss=0.400000000 !23184
new transformer.TRF_104945A Phases=1,Windings=3,Buses=[BMT165509283.2 1006363.1.0 1006363.0.2],Conns=[wye wye wye],kvs=[7.967 0.12 0.12],kvas=[10.000000000 10.000000000 10.000000000],Taps=[1,1.000000000,1.000000000],XHL=1.735000000,XHT=1.735000000,XLT=1.388000000,%loadloss=1.800000000,%noloadloss=0.450000000 !90303
new transformer.TRF_105505A Phases=1,Windings=3,Buses=[BMT183161202.3 1008225.1.0 1008225.0.2],Conns=[wye wye wye],kvs=[7.967 0.12 0.12],kvas=[15.000000000 15.000000000 15.000000000],Taps=[1,1.000000000,1.000000000],XHL=1.921000000,XHT=1.921000000,XLT=1.537000000,%loadloss=1.600000000,%noloadloss=0.400000000 !486
new transformer.TRF_105575A Phases=1,Windings=3,Buses=[BMT183161192.3 1008519.1.0 1008519.0.2],Conns=[wye wye wye],kvs=[7.967 0.12 0.12],kvas=[15.000000000 15.000000000 15.000000000],Taps=[1,1.000000000,1.000000000],XHL=1.921000000,XHT=1.921000000,XLT=1.537000000,%loadloss=1.600000000,%noloadloss=0.400000000 !56720
new transformer.TRF_105582A Phases=1,Windings=3,Buses=[BMT183161194.3 1008533.1.0 1008533.0.2],Conns=[wye wye wye],kvs=[7.967 0.12 0.12],kvas=[35.000000000 35.000000000 35.000000000],Taps=[1,1.000000000,1.000000000],XHL=2.139000000,XHT=2.139000000,XLT=1.712000000,%loadloss=1.293000000,%noloadloss=0.342857000 !56939
new transformer.TRF_106233A Phases=1,Windings=3,Buses=[BMT183160489.1 1012229.1.0 1012229.0.2],Conns=[wye wye wye],kvs=[7.967 0.12 0.12],kvas=[10.000000000 10.000000000 10.000000000],Taps=[1,1.000000000,1.000000000],XHL=1.735000000,XHT=1.735000000,XLT=1.388000000,%loadloss=1.800000000,%noloadloss=0.450000000 !121917
new transformer.TRF_1062518 Phases=3,Windings=2,Buses=[BMT165069721.1.2.3 12266291.1.2.3.0],Conns=[delta,wye],kvs=[13.800000000,0.220000000],kvas=[150.000000000 150.000000000],Taps=[1,1.000000000],XHL=3.840000000,%loadloss=1.130000000,%noloadloss=0.000000000 !378580
new transformer.TRF_106954A Phases=1,Windings=3,Buses=[BMT181748790.1 1016800.1.0 1016800.0.2],Conns=[wye wye wye],kvs=[7.967 0.12 0.12],kvas=[10.000000000 10.000000000 10.000000000],Taps=[1,1.000000000,1.000000000],XHL=1.735000000,XHT=1.735000000,XLT=1.388000000,%loadloss=1.800000000,%noloadloss=0.450000000 !127588
new transformer.TRF_107010A Phases=1,Windings=3,Buses=[BMT163711337.3 1017038.1.0 1017038.0.2],Conns=[wye wye wye],kvs=[7.967 0.12 0.12],kvas=[35.000000000 35.000000000 35.000000000],Taps=[1,1.000000000,1.000000000],XHL=2.139000000,XHT=2.139000000,XLT=1.712000000,%loadloss=1.293000000,%noloadloss=0.342857000 !1313
new transformer.TRF_108277A Phases=1,Windings=3,Buses=[BMT183411293.1 1025466.1.0 1025466.0.2],Conns=[wye wye wye],kvs=[7.967 0.12 0.12],kvas=[35.000000000 35.000000000 35.000000000],Taps=[1,1.000000000,1.000000000],XHL=2.139000000,XHT=2.139000000,XLT=1.712000000,%loadloss=1.293000000,%noloadloss=0.342857000 !56393
new transformer.TRF_109992 Phases=3,Windings=2,Buses=[BMT151279580.1.2.3 1036008.1.2.3.0],Conns=[delta,wye],kvs=[13.800000000,0.220000000],kvas=[75.000000000 75.000000000],Taps=[1,1.000000000],XHL=3.770000000,%loadloss=1.340000000,%noloadloss=0.340000000 !58420
new transformer.TRF_109999 Phases=3,Windings=2,Buses=[BMT98872895.1.2.3 1036099.1.2.3.0],Conns=[delta,wye],kvs=[13.800000000,0.220000000],kvas=[45.000000000 45.000000000],Taps=[1,1.000000000],XHL=3.700000000,%loadloss=1.520000000,%noloadloss=0.377777000 !415703
new transformer.TRF_110048 Phases=3,Windings=2,Buses=[BMT151279579.1.2.3 1036554.1.2.3.0],Conns=[delta,wye],kvs=[13.800000000,0.220000000],kvas=[45.000000000 45.000000000],Taps=[1,1.000000000],XHL=3.700000000,%loadloss=1.520000000,%noloadloss=0.377777000 !76357
new transformer.TRF_110055A Phases=1,Windings=3,Buses=[BMT180196945.3 1036617.1.0 1036617.0.2],Conns=[wye wye wye],kvs=[7.967 0.12 0.12],kvas=[5.000000000 5.000000000 5.000000000],Taps=[1,1.000000000,1.000000000],XHL=1.625000000,XHT=1.625000000,XLT=1.300000000,%loadloss=1.900000000,%noloadloss=0.600000000 !8685
new transformer.TRF_1107808A Phases=1,Windings=3,Buses=[BMT164971058.1 24762649.1.0 24762649.0.2],Conns=[wye wye wye],kvs=[7.967 0.12 0.12],kvas=[35.000000000 35.000000000 35.000000000],Taps=[1,1.000000000,1.000000000],XHL=2.139000000,XHT=2.139000000,XLT=1.712000000,%loadloss=1.293000000,%noloadloss=0.342857000 !289110
new transformer.TRF_111357 Phases=3,Windings=2,Buses=[BMT178388627.1.2.3 1045920.1.2.3.0],Conns=[delta,wye],kvs=[13.800000000,0.220000000],kvas=[45.000000000 45.000000000],Taps=[1,1.000000000],XHL=3.700000000,%loadloss=1.520000000,%noloadloss=0.377777000 !54534
new transformer.TRF_1113884 Phases=3,Windings=2,Buses=[BMT150339003.1.2.3 25908696.1.2.3.0],Conns=[delta,wye],kvs=[13.800000000,0.220000000],kvas=[300.000000000 300.000000000],Taps=[1,1.000000000],XHL=4.900000000,%loadloss=0.990000000,%noloadloss=0.000000000 !206577
new transformer.TRF_1121024A Phases=1,Windings=3,Buses=[BMT152902834.3 27336906.1.0 27336906.0.2],Conns=[wye wye wye],kvs=[7.967 0.12 0.12],kvas=[5.000000000 5.000000000 5.000000000],Taps=[1,1.000000000,1.000000000],XHL=1.625000000,XHT=1.625000000,XLT=1.300000000,%loadloss=1.900000000,%noloadloss=0.600000000 !387186
new transformer.TRF_1121360A Phases=1,Windings=3,Buses=[BMT180439519.3 27407648.1.0 27407648.0.2],Conns=[wye wye wye],kvs=[7.967 0.12 0.12],kvas=[10.000000000 10.000000000 10.000000000],Taps=[1,1.000000000,1.000000000],XHL=1.735000000,XHT=1.735000000,XLT=1.388000000,%loadloss=1.800000000,%noloadloss=0.450000000 !452816
new transformer.TRF_1121367A Phases=1,Windings=3,Buses=[BMT170124632.3 27412429.1.0 27412429.0.2],Conns=[wye wye wye],kvs=[7.967 0.12 0.12],kvas=[10.000000000 10.000000000 10.000000000],Taps=[1,1.000000000,1.000000000],XHL=1.735000000,XHT=1.735000000,XLT=1.388000000,%loadloss=1.800000000,%noloadloss=0.450000000 !381734
new transformer.TRF_1121535A Phases=1,Windings=3,Buses=[BMT170124634.3 27461128.1.0 27461128.0.2],Conns=[wye wye wye],kvs=[7.967 0.12 0.12],kvas=[10.000000000 10.000000000 10.000000000],Taps=[1,1.000000000,1.000000000],XHL=1.735000000,XHT=1.735000000,XLT=1.388000000,%loadloss=1.800000000,%noloadloss=0.450000000 !381735
new transformer.TRF_112806A Phases=1,Windings=3,Buses=[BMT98870480.2 1057533.1.0 1057533.0.2],Conns=[wye wye wye],kvs=[7.967 0.12 0.12],kvas=[25.000000000 25.000000000 25.000000000],Taps=[1,1.000000000,1.000000000],XHL=2.058000000,XHT=2.058000000,XLT=1.646000000,%loadloss=1.420000000,%noloadloss=0.320000000 !32393
new transformer.TRF_112827A Phases=1,Windings=3,Buses=[BMT180196935.3 1057897.1.0 1057897.0.2],Conns=[wye wye wye],kvs=[7.967 0.12 0.12],kvas=[5.000000000 5.000000000 5.000000000],Taps=[1,1.000000000,1.000000000],XHL=1.625000000,XHT=1.625000000,XLT=1.300000000,%loadloss=1.900000000,%noloadloss=0.600000000 !9424
new transformer.TRF_112834A Phases=1,Windings=3,Buses=[BMT98870445.2 1057911.1.0 1057911.0.2],Conns=[wye wye wye],kvs=[7.967 0.12 0.12],kvas=[25.000000000 25.000000000 25.000000000],Taps=[1,1.000000000,1.000000000],XHL=2.058000000,XHT=2.058000000,XLT=1.646000000,%loadloss=1.420000000,%noloadloss=0.320000000 !32390
new transformer.TRF_112883A Phases=1,Windings=3,Buses=[BMT180196919.3 1058177.1.0 1058177.0.2],Conns=[wye wye wye],kvs=[7.967 0.12 0.12],kvas=[15.000000000 15.000000000 15.000000000],Taps=[1,1.000000000,1.000000000],XHL=1.921000000,XHT=1.921000000,XLT=1.537000000,%loadloss=1.600000000,%noloadloss=0.400000000 !39389
new transformer.TRF_112890A Phases=1,Windings=3,Buses=[BMT98870473.2 1058191.1.0 1058191.0.2],Conns=[wye wye wye],kvs=[7.967 0.12 0.12],kvas=[15.000000000 15.000000000 15.000000000],Taps=[1,1.000000000,1.000000000],XHL=1.921000000,XHT=1.921000000,XLT=1.537000000,%loadloss=1.600000000,%noloadloss=0.400000000 !111540
new transformer.TRF_113912A Phases=1,Windings=3,Buses=[BMT182194871.3 1065345.1.0 1065345.0.2],Conns=[wye wye wye],kvs=[7.967 0.12 0.12],kvas=[5.000000000 5.000000000 5.000000000],Taps=[1,1.000000000,1.000000000],XHL=1.625000000,XHT=1.625000000,XLT=1.300000000,%loadloss=1.900000000,%noloadloss=0.600000000 !3200
new transformer.TRF_104588A Phases=1,Windings=3,Buses=[BMT175027379.3 1004424.1.0 1004424.0.2],Conns=[wye wye wye],kvs=[7.967 0.12 0.12],kvas=[15.000000000 15.000000000 15.000000000],Taps=[1,1.000000000,1.000000000],XHL=1.921000000,XHT=1.921000000,XLT=1.537000000,%loadloss=1.600000000,%noloadloss=0.400000000 !32957
new transformer.TRF_104602A Phases=1,Windings=3,Buses=[BMT175027392.3 1004452.1.0 1004452.0.2],Conns=[wye wye wye],kvs=[7.967 0.12 0.12],kvas=[35.000000000 35.000000000 35.000000000],Taps=[1,1.000000000,1.000000000],XHL=2.139000000,XHT=2.139000000,XLT=1.712000000,%loadloss=1.293000000,%noloadloss=0.342857000 !73017
new transformer.TRF_106590A Phases=1,Windings=3,Buses=[BMT159589208.3 1014525.1.0 1014525.0.2],Conns=[wye wye wye],kvs=[7.967 0.12 0.12],kvas=[15.000000000 15.000000000 15.000000000],Taps=[1,1.000000000,1.000000000],XHL=1.921000000,XHT=1.921000000,XLT=1.537000000,%loadloss=1.600000000,%noloadloss=0.400000000 !41783
new transformer.TRF_107269A Phases=1,Windings=3,Buses=[BMT152902826.3 1018837.1.0 1018837.0.2],Conns=[wye wye wye],kvs=[7.967 0.12 0.12],kvas=[10.000000000 10.000000000 10.000000000],Taps=[1,1.000000000,1.000000000],XHL=1.735000000,XHT=1.735000000,XLT=1.388000000,%loadloss=1.800000000,%noloadloss=0.450000000 !16735
new transformer.TRF_107976A Phases=1,Windings=3,Buses=[BMT183157348.1 1024143.1.0 1024143.0.2],Conns=[wye wye wye],kvs=[7.967 0.12 0.12],kvas=[15.000000000 15.000000000 15.000000000],Taps=[1,1.000000000,1.000000000],XHL=1.921000000,XHT=1.921000000,XLT=1.537000000,%loadloss=1.600000000,%noloadloss=0.400000000 !14483
new transformer.TRF_1079794 Phases=3,Windings=2,Buses=[BMT174450829.1.2.3 17864457.1.2.3.0],Conns=[delta,wye],kvs=[13.800000000,0.220000000],kvas=[30.000000000 30.000000000],Taps=[1,1.000000000],XHL=3.640000000,%loadloss=1.670000000,%noloadloss=0.433333000 !154139
new transformer.TRF_107990 Phases=3,Windings=2,Buses=[BMT167782681.1.2.3 1024171.1.2.3.0],Conns=[delta,wye],kvs=[13.800000000,0.220000000],kvas=[45.000000000 45.000000000],Taps=[1,1.000000000],XHL=3.700000000,%loadloss=1.520000000,%noloadloss=0.377777000 !52301
new transformer.TRF_1083735 Phases=3,Windings=2,Buses=[BMT183299244.1.2.3 19233188.1.2.3.0],Conns=[delta,wye],kvs=[13.800000000,0.220000000],kvas=[45.000000000 45.000000000],Taps=[1,1.000000000],XHL=3.700000000,%loadloss=1.520000000,%noloadloss=0.377777000 !152697
new transformer.TRF_108396 Phases=3,Windings=2,Buses=[BMT182228412.1.2.3 1026089.1.2.3.0],Conns=[delta,wye],kvs=[13.800000000,0.220000000],kvas=[75.000000000 75.000000000],Taps=[1,1.000000000],XHL=3.770000000,%loadloss=1.340000000,%noloadloss=0.340000000 !60362
new transformer.TRF_108431A Phases=1,Windings=3,Buses=[BMT183411294.1 1026453.1.0 1026453.0.2],Conns=[wye wye wye],kvs=[7.967 0.12 0.12],kvas=[15.000000000 15.000000000 15.000000000],Taps=[1,1.000000000,1.000000000],XHL=1.921000000,XHT=1.921000000,XLT=1.537000000,%loadloss=1.600000000,%noloadloss=0.400000000 !126649
new transformer.TRF_108452 Phases=3,Windings=2,Buses=[BMT182228425.1.2.3 1026593.1.2.3.0],Conns=[delta,wye],kvs=[13.800000000,0.220000000],kvas=[45.000000000 45.000000000],Taps=[1,1.000000000],XHL=3.700000000,%loadloss=1.520000000,%noloadloss=0.377777000 !57429
new transformer.TRF_109103A Phases=1,Windings=3,Buses=[BMT180196977.3 1030450.1.0 1030450.0.2],Conns=[wye wye wye],kvs=[7.967 0.12 0.12],kvas=[15.000000000 15.000000000 15.000000000],Taps=[1,1.000000000,1.000000000],XHL=1.921000000,XHT=1.921000000,XLT=1.537000000,%loadloss=1.600000000,%noloadloss=0.400000000 !135345
new transformer.TRF_109719A Phases=1,Windings=3,Buses=[BMT98870256.3 1034531.1.0 1034531.0.2],Conns=[wye wye wye],kvs=[7.967 0.12 0.12],kvas=[25.000000000 25.000000000 25.000000000],Taps=[1,1.000000000,1.000000000],XHL=2.058000000,XHT=2.058000000,XLT=1.646000000,%loadloss=1.420000000,%noloadloss=0.320000000 !32394
new transformer.TRF_109775A Phases=1,Windings=3,Buses=[BMT180196956.3 1034776.1.0 1034776.0.2],Conns=[wye wye wye],kvs=[7.967 0.12 0.12],kvas=[10.000000000 10.000000000 10.000000000],Taps=[1,1.000000000,1.000000000],XHL=1.735000000,XHT=1.735000000,XLT=1.388000000,%loadloss=1.800000000,%noloadloss=0.450000000 !66223
new transformer.TRF_110447A Phases=1,Windings=3,Buses=[BMT98870354.2 1039270.1.0 1039270.0.2],Conns=[wye wye wye],kvs=[7.967 0.12 0.12],kvas=[25.000000000 25.000000000 25.000000000],Taps=[1,1.000000000,1.000000000],XHL=2.058000000,XHT=2.058000000,XLT=1.646000000,%loadloss=1.420000000,%noloadloss=0.320000000 !32391
new transformer.TRF_111028A Phases=1,Windings=3,Buses=[BMT173075516.2 1043729.1.0 1043729.0.2],Conns=[wye wye wye],kvs=[7.967 0.12 0.12],kvas=[10.000000000 10.000000000 10.000000000],Taps=[1,1.000000000,1.000000000],XHL=1.735000000,XHT=1.735000000,XLT=1.388000000,%loadloss=1.800000000,%noloadloss=0.450000000 !86221
new transformer.TRF_111035 Phases=3,Windings=2,Buses=[BMT178388622.1.2.3 1043743.1.2.3.0],Conns=[delta,wye],kvs=[13.800000000,0.220000000],kvas=[45.000000000 45.000000000],Taps=[1,1.000000000],XHL=3.700000000,%loadloss=1.520000000,%noloadloss=0.377777000 !54536
new transformer.TRF_111609A Phases=1,Windings=3,Buses=[BMT98870431.2 1047656.1.0 1047656.0.2],Conns=[wye wye wye],kvs=[7.967 0.12 0.12],kvas=[25.000000000 25.000000000 25.000000000],Taps=[1,1.000000000,1.000000000],XHL=2.058000000,XHT=2.058000000,XLT=1.646000000,%loadloss=1.420000000,%noloadloss=0.320000000 !335104
new transformer.TRF_111623A Phases=1,Windings=3,Buses=[BMT180196925.3 1047782.1.0 1047782.0.2],Conns=[wye wye wye],kvs=[7.967 0.12 0.12],kvas=[5.000000000 5.000000000 5.000000000],Taps=[1,1.000000000,1.000000000],XHL=1.625000000,XHT=1.625000000,XLT=1.300000000,%loadloss=1.900000000,%noloadloss=0.600000000 !75036
new transformer.TRF_111651A Phases=1,Windings=3,Buses=[BMT98870424.2 1047985.1.0 1047985.0.2],Conns=[wye wye wye],kvs=[7.967 0.12 0.12],kvas=[25.000000000 25.000000000 25.000000000],Taps=[1,1.000000000,1.000000000],XHL=2.058000000,XHT=2.058000000,XLT=1.646000000,%loadloss=1.420000000,%noloadloss=0.320000000 !32386
new transformer.TRF_111679A Phases=1,Windings=3,Buses=[BMT180196914.3 1048230.1.0 1048230.0.2],Conns=[wye wye wye],kvs=[7.967 0.12 0.12],kvas=[35.000000000 35.000000000 35.000000000],Taps=[1,1.000000000,1.000000000],XHL=2.139000000,XHT=2.139000000,XLT=1.712000000,%loadloss=1.293000000,%noloadloss=0.342857000 !26826
new transformer.TRF_112379A Phases=1,Windings=3,Buses=[BMT182294230.1 1053991.1.0 1053991.0.2],Conns=[wye wye wye],kvs=[7.967 0.12 0.12],kvas=[35.000000000 35.000000000 35.000000000],Taps=[1,1.000000000,1.000000000],XHL=2.139000000,XHT=2.139000000,XLT=1.712000000,%loadloss=1.293000000,%noloadloss=0.342857000 !58450
new transformer.TRF_112393A Phases=1,Windings=3,Buses=[BMT176434894.1 1054236.1.0 1054236.0.2],Conns=[wye wye wye],kvs=[7.967 0.12 0.12],kvas=[25.000000000 25.000000000 25.000000000],Taps=[1,1.000000000,1.000000000],XHL=2.058000000,XHT=2.058000000,XLT=1.646000000,%loadloss=1.420000000,%noloadloss=0.320000000 !30668
new transformer.TRF_112400A Phases=1,Windings=3,Buses=[BMT167700874.2 1054327.1.0 1054327.0.2],Conns=[wye wye wye],kvs=[7.967 0.12 0.12],kvas=[10.000000000 10.000000000 10.000000000],Taps=[1,1.000000000,1.000000000],XHL=1.735000000,XHT=1.735000000,XLT=1.388000000,%loadloss=1.800000000,%noloadloss=0.450000000 !105874
new transformer.TRF_113212A Phases=1,Windings=3,Buses=[BMT164678906.1 1060095.1.0 1060095.0.2],Conns=[wye wye wye],kvs=[7.967 0.12 0.12],kvas=[25.000000000 25.000000000 25.000000000],Taps=[1,1.000000000,1.000000000],XHL=2.058000000,XHT=2.058000000,XLT=1.646000000,%loadloss=1.420000000,%noloadloss=0.320000000 !335048
new transformer.TRF_113296A Phases=1,Windings=3,Buses=[BMT149467561.3 1060858.1.0 1060858.0.2],Conns=[wye wye wye],kvs=[7.967 0.12 0.12],kvas=[35.000000000 35.000000000 35.000000000],Taps=[1,1.000000000,1.000000000],XHL=2.139000000,XHT=2.139000000,XLT=1.712000000,%loadloss=1.293000000,%noloadloss=0.342857000 !293156
new transformer.TRF_114178A Phases=1,Windings=3,Buses=[BMT164678897.3 1066948.1.0 1066948.0.2],Conns=[wye wye wye],kvs=[7.967 0.12 0.12],kvas=[35.000000000 35.000000000 35.000000000],Taps=[1,1.000000000,1.000000000],XHL=2.139000000,XHT=2.139000000,XLT=1.712000000,%loadloss=1.293000000,%noloadloss=0.342857000 !307858
new transformer.TRF_114185A Phases=1,Windings=3,Buses=[BMT180196923.3 1067025.1.0 1067025.0.2],Conns=[wye wye wye],kvs=[7.967 0.12 0.12],kvas=[15.000000000 15.000000000 15.000000000],Taps=[1,1.000000000,1.000000000],XHL=1.921000000,XHT=1.921000000,XLT=1.537000000,%loadloss=1.600000000,%noloadloss=0.400000000 !59300
new transformer.TRF_114276A Phases=1,Windings=3,Buses=[BMT164678895.1 1067438.1.0 1067438.0.2],Conns=[wye wye wye],kvs=[7.967 0.12 0.12],kvas=[35.000000000 35.000000000 35.000000000],Taps=[1,1.000000000,1.000000000],XHL=2.139000000,XHT=2.139000000,XLT=1.712000000,%loadloss=1.293000000,%noloadloss=0.342857000 !20059
new transformer.TRF_114290A Phases=1,Windings=3,Buses=[BMT149467552.2 1067599.1.0 1067599.0.2],Conns=[wye wye wye],kvs=[7.967 0.12 0.12],kvas=[35.000000000 35.000000000 35.000000000],Taps=[1,1.000000000,1.000000000],XHL=2.139000000,XHT=2.139000000,XLT=1.712000000,%loadloss=1.293000000,%noloadloss=0.342857000 !294513
new transformer.TRF_100549A Phases=1,Windings=3,Buses=[BMT151962867.1 970075.1.0 970075.0.2],Conns=[wye wye wye],kvs=[7.967 0.12 0.12],kvas=[35.000000000 35.000000000 35.000000000],Taps=[1,1.000000000,1.000000000],XHL=2.139000000,XHT=2.139000000,XLT=1.712000000,%loadloss=1.293000000,%noloadloss=0.342857000 !291649
new transformer.TRF_103622A Phases=1,Windings=3,Buses=[BMT150650047.3 997655.1.0 997655.0.2],Conns=[wye wye wye],kvs=[7.967 0.12 0.12],kvas=[35.000000000 35.000000000 35.000000000],Taps=[1,1.000000000,1.000000000],XHL=2.139000000,XHT=2.139000000,XLT=1.712000000,%loadloss=1.293000000,%noloadloss=0.342857000 !25860
new transformer.TRF_104357A Phases=1,Windings=3,Buses=[BMT181748794.1 1003199.1.0 1003199.0.2],Conns=[wye wye wye],kvs=[7.967 0.12 0.12],kvas=[5.000000000 5.000000000 5.000000000],Taps=[1,1.000000000,1.000000000],XHL=1.625000000,XHT=1.625000000,XLT=1.300000000,%loadloss=1.900000000,%noloadloss=0.600000000 !3749
new transformer.TRF_105015A Phases=1,Windings=3,Buses=[BMT183161675.2 1006629.1.0 1006629.0.2],Conns=[wye wye wye],kvs=[7.967 0.12 0.12],kvas=[35.000000000 35.000000000 35.000000000],Taps=[1,1.000000000,1.000000000],XHL=2.139000000,XHT=2.139000000,XLT=1.712000000,%loadloss=1.293000000,%noloadloss=0.342857000 !22302
new transformer.TRF_105631A Phases=1,Windings=3,Buses=[BMT175027383.3 1008841.1.0 1008841.0.2],Conns=[wye wye wye],kvs=[7.967 0.12 0.12],kvas=[10.000000000 10.000000000 10.000000000],Taps=[1,1.000000000,1.000000000],XHL=1.735000000,XHT=1.735000000,XLT=1.388000000,%loadloss=1.800000000,%noloadloss=0.450000000 !116863
new transformer.TRF_105645A Phases=1,Windings=3,Buses=[BMT181748800.1 1008869.1.0 1008869.0.2],Conns=[wye wye wye],kvs=[7.967 0.12 0.12],kvas=[10.000000000 10.000000000 10.000000000],Taps=[1,1.000000000,1.000000000],XHL=1.735000000,XHT=1.735000000,XLT=1.388000000,%loadloss=1.800000000,%noloadloss=0.450000000 !5778
new transformer.TRF_106443A Phases=1,Windings=3,Buses=[BMT183157344.2 1013566.1.0 1013566.0.2],Conns=[wye wye wye],kvs=[7.967 0.12 0.12],kvas=[15.000000000 15.000000000 15.000000000],Taps=[1,1.000000000,1.000000000],XHL=1.921000000,XHT=1.921000000,XLT=1.537000000,%loadloss=1.600000000,%noloadloss=0.400000000 !403444
new transformer.TRF_106513A Phases=1,Windings=3,Buses=[BMT181748788.1 1013986.1.0 1013986.0.2],Conns=[wye wye wye],kvs=[7.967 0.12 0.12],kvas=[10.000000000 10.000000000 10.000000000],Taps=[1,1.000000000,1.000000000],XHL=1.735000000,XHT=1.735000000,XLT=1.388000000,%loadloss=1.800000000,%noloadloss=0.450000000 !379808
new transformer.TRF_107514A Phases=1,Windings=3,Buses=[BMT159589212.3 1020489.1.0 1020489.0.2],Conns=[wye wye wye],kvs=[7.967 0.12 0.12],kvas=[5.000000000 5.000000000 5.000000000],Taps=[1,1.000000000,1.000000000],XHL=1.625000000,XHT=1.625000000,XLT=1.300000000,%loadloss=1.900000000,%noloadloss=0.600000000 !10614
new transformer.TRF_108102A Phases=1,Windings=3,Buses=[BMT183157351.1 1024892.1.0 1024892.0.2],Conns=[wye wye wye],kvs=[7.967 0.12 0.12],kvas=[10.000000000 10.000000000 10.000000000],Taps=[1,1.000000000,1.000000000],XHL=1.735000000,XHT=1.735000000,XLT=1.388000000,%loadloss=1.800000000,%noloadloss=0.450000000 !91941
new transformer.TRF_108172A Phases=1,Windings=3,Buses=[BMT163711335.3 1025116.1.0 1025116.0.2],Conns=[wye wye wye],kvs=[7.967 0.12 0.12],kvas=[10.000000000 10.000000000 10.000000000],Taps=[1,1.000000000,1.000000000],XHL=1.735000000,XHT=1.735000000,XLT=1.388000000,%loadloss=1.800000000,%noloadloss=0.450000000 !254535
new transformer.TRF_109537 Phases=3,Windings=2,Buses=[BMT178388620.1.2.3 1033110.1.2.3.0],Conns=[delta,wye],kvs=[13.800000000,0.220000000],kvas=[75.000000000 75.000000000],Taps=[1,1.000000000],XHL=3.770000000,%loadloss=1.340000000,%noloadloss=0.340000000 !162684
new transformer.TRF_110307A Phases=1,Windings=3,Buses=[BMT173075515.2 1038437.1.0 1038437.0.2],Conns=[wye wye wye],kvs=[7.967 0.12 0.12],kvas=[10.000000000 10.000000000 10.000000000],Taps=[1,1.000000000,1.000000000],XHL=1.735000000,XHT=1.735000000,XLT=1.388000000,%loadloss=1.800000000,%noloadloss=0.450000000 !2435
new transformer.TRF_1109313A Phases=1,Windings=3,Buses=[BMT129629803.3 25079847.1.0 25079847.0.2],Conns=[wye wye wye],kvs=[7.967 0.12 0.12],kvas=[5.000000000 5.000000000 5.000000000],Taps=[1,1.000000000,1.000000000],XHL=1.625000000,XHT=1.625000000,XLT=1.300000000,%loadloss=1.900000000,%noloadloss=0.600000000 !388469
new transformer.TRF_1109327A Phases=1,Windings=3,Buses=[BMT129629796.3 25080127.1.0 25080127.0.2],Conns=[wye wye wye],kvs=[7.967 0.12 0.12],kvas=[5.000000000 5.000000000 5.000000000],Taps=[1,1.000000000,1.000000000],XHL=1.625000000,XHT=1.625000000,XLT=1.300000000,%loadloss=1.900000000,%noloadloss=0.600000000 !388947
new transformer.TRF_110937 Phases=3,Windings=2,Buses=[BMT178388621.1.2.3 1043008.1.2.3.0],Conns=[delta,wye],kvs=[13.800000000,0.220000000],kvas=[45.000000000 45.000000000],Taps=[1,1.000000000],XHL=3.700000000,%loadloss=1.520000000,%noloadloss=0.377777000 !54531
new transformer.TRF_111595A Phases=1,Windings=3,Buses=[BMT180196918.3 1047628.1.0 1047628.0.2],Conns=[wye wye wye],kvs=[7.967 0.12 0.12],kvas=[10.000000000 10.000000000 10.000000000],Taps=[1,1.000000000,1.000000000],XHL=1.735000000,XHT=1.735000000,XLT=1.388000000,%loadloss=1.800000000,%noloadloss=0.450000000 !67858
new transformer.TRF_112253 Phases=3,Windings=2,Buses=[BMT176434890.1.2.3 1052934.1.2.3.0],Conns=[delta,wye],kvs=[13.800000000,0.220000000],kvas=[45.000000000 45.000000000],Taps=[1,1.000000000],XHL=3.700000000,%loadloss=1.520000000,%noloadloss=0.377777000 !376049
new transformer.TRF_112274 Phases=3,Windings=2,Buses=[BMT176434892.1.2.3 1053165.1.2.3.0],Conns=[delta,wye],kvs=[13.800000000,0.220000000],kvas=[45.000000000 45.000000000],Taps=[1,1.000000000],XHL=3.700000000,%loadloss=1.520000000,%noloadloss=0.377777000 !393487
new transformer.TRF_113121A Phases=1,Windings=3,Buses=[BMT181366027.2 1059661.1.0 1059661.0.2],Conns=[wye wye wye],kvs=[7.967 0.12 0.12],kvas=[5.000000000 5.000000000 5.000000000],Taps=[1,1.000000000,1.000000000],XHL=1.625000000,XHT=1.625000000,XLT=1.300000000,%loadloss=1.900000000,%noloadloss=0.600000000 !823
new transformer.TRF_1131272 Phases=3,Windings=2,Buses=[BMT165676071.1.2.3 29536383.1.2.3.0],Conns=[delta,wye],kvs=[13.800000000,0.220000000],kvas=[150.000000000 150.000000000],Taps=[1,1.000000000],XHL=3.840000000,%loadloss=1.130000000,%noloadloss=0.000000000 !204635
new transformer.TRF_113149A Phases=1,Windings=3,Buses=[BMT149467554.1 1059717.1.0 1059717.0.2],Conns=[wye wye wye],kvs=[7.967 0.12 0.12],kvas=[25.000000000 25.000000000 25.000000000],Taps=[1,1.000000000,1.000000000],XHL=2.058000000,XHT=2.058000000,XLT=1.646000000,%loadloss=1.420000000,%noloadloss=0.320000000 !4644
new transformer.TRF_113163A Phases=1,Windings=3,Buses=[BMT149034131.3 1059801.1.0 1059801.0.2],Conns=[wye wye wye],kvs=[7.967 0.12 0.12],kvas=[35.000000000 35.000000000 35.000000000],Taps=[1,1.000000000,1.000000000],XHL=2.139000000,XHT=2.139000000,XLT=1.712000000,%loadloss=1.293000000,%noloadloss=0.342857000 !27918
new transformer.TRF_114045A Phases=1,Windings=3,Buses=[BMT164678907.3 1066129.1.0 1066129.0.2],Conns=[wye wye wye],kvs=[7.967 0.12 0.12],kvas=[35.000000000 35.000000000 35.000000000],Taps=[1,1.000000000,1.000000000],XHL=2.139000000,XHT=2.139000000,XLT=1.712000000,%loadloss=1.293000000,%noloadloss=0.342857000 !313461
new transformer.TRF_114066A Phases=1,Windings=3,Buses=[BMT182194875.3 1066325.1.0 1066325.0.2],Conns=[wye wye wye],kvs=[7.967 0.12 0.12],kvas=[10.000000000 10.000000000 10.000000000],Taps=[1,1.000000000,1.000000000],XHL=1.735000000,XHT=1.735000000,XLT=1.388000000,%loadloss=1.800000000,%noloadloss=0.450000000 !4457
new transformer.TRF_114101A Phases=1,Windings=3,Buses=[BMT164678891.1 1066507.1.0 1066507.0.2],Conns=[wye wye wye],kvs=[7.967 0.12 0.12],kvas=[35.000000000 35.000000000 35.000000000],Taps=[1,1.000000000,1.000000000],XHL=2.139000000,XHT=2.139000000,XLT=1.712000000,%loadloss=1.293000000,%noloadloss=0.342857000 !66848
new transformer.TRF_114129A Phases=1,Windings=3,Buses=[BMT182194881.3 1066731.1.0 1066731.0.2],Conns=[wye wye wye],kvs=[7.967 0.12 0.12],kvas=[15.000000000 15.000000000 15.000000000],Taps=[1,1.000000000,1.000000000],XHL=1.921000000,XHT=1.921000000,XLT=1.537000000,%loadloss=1.600000000,%noloadloss=0.400000000 !35789
new transformer.TRF_114150A Phases=1,Windings=3,Buses=[BMT164678894.1 1066773.1.0 1066773.0.2],Conns=[wye wye wye],kvs=[7.967 0.12 0.12],kvas=[35.000000000 35.000000000 35.000000000],Taps=[1,1.000000000,1.000000000],XHL=2.139000000,XHT=2.139000000,XLT=1.712000000,%loadloss=1.293000000,%noloadloss=0.342857000 !294187
new transformer.TRF_114157A Phases=1,Windings=3,Buses=[BMT182194872.3 1066850.1.0 1066850.0.2],Conns=[wye wye wye],kvs=[7.967 0.12 0.12],kvas=[35.000000000 35.000000000 35.000000000],Taps=[1,1.000000000,1.000000000],XHL=2.139000000,XHT=2.139000000,XLT=1.712000000,%loadloss=1.293000000,%noloadloss=0.342857000 !322736
new transformer.TRF_1152685A Phases=1,Windings=3,Buses=[BMT183439943.3 34560892.1.0 34560892.0.2],Conns=[wye wye wye],kvs=[7.967 0.12 0.12],kvas=[10.000000000 10.000000000 10.000000000],Taps=[1,1.000000000,1.000000000],XHL=1.735000000,XHT=1.735000000,XLT=1.388000000,%loadloss=1.800000000,%noloadloss=0.450000000 !381895
new transformer.TRF_101130A Phases=1,Windings=3,Buses=[BMT165509281.2 974695.1.0 974695.0.2],Conns=[wye wye wye],kvs=[7.967 0.12 0.12],kvas=[10.000000000 10.000000000 10.000000000],Taps=[1,1.000000000,1.000000000],XHL=1.735000000,XHT=1.735000000,XLT=1.388000000,%loadloss=1.800000000,%noloadloss=0.450000000 !17621
new transformer.TRF_105694A Phases=1,Windings=3,Buses=[BMT183157342.1 1008967.1.0 1008967.0.2],Conns=[wye wye wye],kvs=[7.967 0.12 0.12],kvas=[5.000000000 5.000000000 5.000000000],Taps=[1,1.000000000,1.000000000],XHL=1.625000000,XHT=1.625000000,XLT=1.300000000,%loadloss=1.900000000,%noloadloss=0.600000000 !143791
new transformer.TRF_105771A Phases=1,Windings=3,Buses=[BMT183411315.1 1009499.1.0 1009499.0.2],Conns=[wye wye wye],kvs=[7.967 0.12 0.12],kvas=[35.000000000 35.000000000 35.000000000],Taps=[1,1.000000000,1.000000000],XHL=2.139000000,XHT=2.139000000,XLT=1.712000000,%loadloss=1.293000000,%noloadloss=0.342857000 !26654
new transformer.TRF_106338A Phases=1,Windings=3,Buses=[BMT159589206.3 1013083.1.0 1013083.0.2],Conns=[wye wye wye],kvs=[7.967 0.12 0.12],kvas=[5.000000000 5.000000000 5.000000000],Taps=[1,1.000000000,1.000000000],XHL=1.625000000,XHT=1.625000000,XLT=1.300000000,%loadloss=1.900000000,%noloadloss=0.600000000 !6670
new transformer.TRF_1063400 Phases=3,Windings=2,Buses=[BMT98852637.1.2.3 12535462.1.2.3.0],Conns=[delta,wye],kvs=[13.800000000,0.220000000],kvas=[300.000000000 300.000000000],Taps=[1,1.000000000],XHL=4.900000000,%loadloss=0.990000000,%noloadloss=0.000000000 !196395
new transformer.TRF_1063799 Phases=3,Windings=2,Buses=[BMT181702785.1.2.3 12720864.1.2.3.0],Conns=[delta,wye],kvs=[13.800000000,0.220000000],kvas=[150.000000000 150.000000000],Taps=[1,1.000000000],XHL=3.840000000,%loadloss=1.130000000,%noloadloss=0.000000000 !197034
new transformer.TRF_107080A Phases=1,Windings=3,Buses=[BMT159589209.3 1017654.1.0 1017654.0.2],Conns=[wye wye wye],kvs=[7.967 0.12 0.12],kvas=[15.000000000 15.000000000 15.000000000],Taps=[1,1.000000000,1.000000000],XHL=1.921000000,XHT=1.921000000,XLT=1.537000000,%loadloss=1.600000000,%noloadloss=0.400000000 !23695
new transformer.TRF_107787A Phases=1,Windings=3,Buses=[BMT148636741.1 1022358.1.0 1022358.0.2],Conns=[wye wye wye],kvs=[7.967 0.12 0.12],kvas=[10.000000000 10.000000000 10.000000000],Taps=[1,1.000000000,1.000000000],XHL=1.735000000,XHT=1.735000000,XLT=1.388000000,%loadloss=1.800000000,%noloadloss=0.450000000 !13438
new transformer.TRF_108606A Phases=1,Windings=3,Buses=[BMT183411288.1 1027587.1.0 1027587.0.2],Conns=[wye wye wye],kvs=[7.967 0.12 0.12],kvas=[35.000000000 35.000000000 35.000000000],Taps=[1,1.000000000,1.000000000],XHL=2.139000000,XHT=2.139000000,XLT=1.712000000,%loadloss=1.293000000,%noloadloss=0.342857000 !27450
new transformer.TRF_109908A Phases=1,Windings=3,Buses=[BMT98870340.1 1035539.1.0 1035539.0.2],Conns=[wye wye wye],kvs=[7.967 0.12 0.12],kvas=[25.000000000 25.000000000 25.000000000],Taps=[1,1.000000000,1.000000000],XHL=2.058000000,XHT=2.058000000,XLT=1.646000000,%loadloss=1.420000000,%noloadloss=0.320000000 !32387
new transformer.TRF_109936A Phases=1,Windings=3,Buses=[BMT173075513.2 1035700.1.0 1035700.0.2],Conns=[wye wye wye],kvs=[7.967 0.12 0.12],kvas=[10.000000000 10.000000000 10.000000000],Taps=[1,1.000000000,1.000000000],XHL=1.735000000,XHT=1.735000000,XLT=1.388000000,%loadloss=1.800000000,%noloadloss=0.450000000 !85882
new transformer.TRF_110559 Phases=3,Windings=2,Buses=[BMT167700881.1.2.3 1040194.1.2.3.0],Conns=[delta,wye],kvs=[13.800000000,0.220000000],kvas=[45.000000000 45.000000000],Taps=[1,1.000000000],XHL=3.700000000,%loadloss=1.520000000,%noloadloss=0.377777000 !56278
new transformer.TRF_110566 Phases=3,Windings=2,Buses=[BMT178388618.1.2.3 1040208.1.2.3.0],Conns=[delta,wye],kvs=[13.800000000,0.220000000],kvas=[45.000000000 45.000000000],Taps=[1,1.000000000],XHL=3.700000000,%loadloss=1.520000000,%noloadloss=0.377777000 !18682
new transformer.TRF_111203 Phases=3,Windings=2,Buses=[BMT167700868.1.2.3 1045031.1.2.3.0],Conns=[delta,wye],kvs=[13.800000000,0.220000000],kvas=[30.000000000 30.000000000],Taps=[1,1.000000000],XHL=3.640000000,%loadloss=1.670000000,%noloadloss=0.433333000 !58677
new transformer.TRF_111959A Phases=1,Windings=3,Buses=[BMT180196917.3 1050855.1.0 1050855.0.2],Conns=[wye wye wye],kvs=[7.967 0.12 0.12],kvas=[15.000000000 15.000000000 15.000000000],Taps=[1,1.000000000,1.000000000],XHL=1.921000000,XHT=1.921000000,XLT=1.537000000,%loadloss=1.600000000,%noloadloss=0.400000000 !31175
new transformer.TRF_112603A Phases=1,Windings=3,Buses=[BMT98870410.2 1056042.1.0 1056042.0.2],Conns=[wye wye wye],kvs=[7.967 0.12 0.12],kvas=[15.000000000 15.000000000 15.000000000],Taps=[1,1.000000000,1.000000000],XHL=1.921000000,XHT=1.921000000,XLT=1.537000000,%loadloss=1.600000000,%noloadloss=0.400000000 !111388
new transformer.TRF_112624A Phases=1,Windings=3,Buses=[BMT98870466.2 1056231.1.0 1056231.0.2],Conns=[wye wye wye],kvs=[7.967 0.12 0.12],kvas=[25.000000000 25.000000000 25.000000000],Taps=[1,1.000000000,1.000000000],XHL=2.058000000,XHT=2.058000000,XLT=1.646000000,%loadloss=1.420000000,%noloadloss=0.320000000 !32392
new transformer.TRF_112631 Phases=3,Windings=2,Buses=[BMT98872881.1.2.3 1056287.1.2.3.0],Conns=[delta,wye],kvs=[13.800000000,0.220000000],kvas=[45.000000000 45.000000000],Taps=[1,1.000000000],XHL=3.700000000,%loadloss=1.520000000,%noloadloss=0.377777000 !401668
new transformer.TRF_113625A Phases=1,Windings=3,Buses=[BMT176618143.2 1063231.1.0 1063231.0.2],Conns=[wye wye wye],kvs=[7.967 0.12 0.12],kvas=[35.000000000 35.000000000 35.000000000],Taps=[1,1.000000000,1.000000000],XHL=2.139000000,XHT=2.139000000,XLT=1.712000000,%loadloss=1.293000000,%noloadloss=0.342857000 !290361
new transformer.TRF_113653A Phases=1,Windings=3,Buses=[BMT180386390.2 1063406.1.0 1063406.0.2],Conns=[wye wye wye],kvs=[7.967 0.12 0.12],kvas=[35.000000000 35.000000000 35.000000000],Taps=[1,1.000000000,1.000000000],XHL=2.139000000,XHT=2.139000000,XLT=1.712000000,%loadloss=1.293000000,%noloadloss=0.342857000 !319786
new transformer.TRF_114822A Phases=1,Windings=3,Buses=[BMT180623719.1 1071771.1.0 1071771.0.2],Conns=[wye wye wye],kvs=[7.967 0.12 0.12],kvas=[15.000000000 15.000000000 15.000000000],Taps=[1,1.000000000,1.000000000],XHL=1.921000000,XHT=1.921000000,XLT=1.537000000,%loadloss=1.600000000,%noloadloss=0.400000000 !3991
new transformer.TRF_114850 Phases=3,Windings=2,Buses=[BMT180386392.1.2.3 1071932.1.2.3.0],Conns=[delta,wye],kvs=[13.800000000,0.220000000],kvas=[75.000000000 75.000000000],Taps=[1,1.000000000],XHL=3.770000000,%loadloss=1.340000000,%noloadloss=0.340000000 !60298
new transformer.TRF_114885 Phases=3,Windings=2,Buses=[BMT163282696.1.2.3 1072037.1.2.3.0],Conns=[delta,wye],kvs=[13.800000000,0.220000000],kvas=[45.000000000 45.000000000],Taps=[1,1.000000000],XHL=3.700000000,%loadloss=1.520000000,%noloadloss=0.377777000 !57152
new transformer.TRF_114934A Phases=1,Windings=3,Buses=[BMT180623727.1 1072394.1.0 1072394.0.2],Conns=[wye wye wye],kvs=[7.967 0.12 0.12],kvas=[15.000000000 15.000000000 15.000000000],Taps=[1,1.000000000,1.000000000],XHL=1.921000000,XHT=1.921000000,XLT=1.537000000,%loadloss=1.600000000,%noloadloss=0.400000000 !110058
new transformer.TRF_115669 Phases=3,Windings=2,Buses=[BMT157588977.1.2.3 1077560.1.2.3.0],Conns=[delta,wye],kvs=[13.800000000,0.220000000],kvas=[45.000000000 45.000000000],Taps=[1,1.000000000],XHL=3.700000000,%loadloss=1.520000000,%noloadloss=0.377777000 !56199
new transformer.TRF_1168743 Phases=3,Windings=2,Buses=[BMT98873854.1.2.3 36093108.1.2.3.0],Conns=[delta,wye],kvs=[13.800000000,0.220000000],kvas=[15.000000000 15.000000000],Taps=[1,1.000000000],XHL=3.480000000,%loadloss=1.970000000,%noloadloss=0.500000000 !6792
new transformer.TRF_1168785A Phases=1,Windings=3,Buses=[BMT98873875.2 36096972.1.0 36096972.0.2],Conns=[wye wye wye],kvs=[7.967 0.12 0.12],kvas=[35.000000000 35.000000000 35.000000000],Taps=[1,1.000000000,1.000000000],XHL=2.139000000,XHT=2.139000000,XLT=1.712000000,%loadloss=1.293000000,%noloadloss=0.342857000 !289916
new transformer.TRF_1168841A Phases=1,Windings=3,Buses=[BMT98873882.2 36106786.1.0 36106786.0.2],Conns=[wye wye wye],kvs=[7.967 0.12 0.12],kvas=[35.000000000 35.000000000 35.000000000],Taps=[1,1.000000000,1.000000000],XHL=2.139000000,XHT=2.139000000,XLT=1.712000000,%loadloss=1.293000000,%noloadloss=0.342857000 !289917
new transformer.TRF_1168883A Phases=1,Windings=3,Buses=[BMT98873896.2 36111973.1.0 36111973.0.2],Conns=[wye wye wye],kvs=[7.967 0.12 0.12],kvas=[35.000000000 35.000000000 35.000000000],Taps=[1,1.000000000,1.000000000],XHL=2.139000000,XHT=2.139000000,XLT=1.712000000,%loadloss=1.293000000,%noloadloss=0.342857000 !289918
new transformer.TRF_1168904A Phases=1,Windings=3,Buses=[BMT98873903.2 36113590.1.0 36113590.0.2],Conns=[wye wye wye],kvs=[7.967 0.12 0.12],kvas=[15.000000000 15.000000000 15.000000000],Taps=[1,1.000000000,1.000000000],XHL=1.921000000,XHT=1.921000000,XLT=1.537000000,%loadloss=1.600000000,%noloadloss=0.400000000 !289815
new transformer.TRF_10256A Phases=1,Windings=3,Buses=[BMT180859235.2 96699.1.0 96699.0.2],Conns=[wye wye wye],kvs=[7.967 0.12 0.12],kvas=[35.000000000 35.000000000 35.000000000],Taps=[1,1.000000000,1.000000000],XHL=2.139000000,XHT=2.139000000,XLT=1.712000000,%loadloss=1.293000000,%noloadloss=0.342857000 !315677
new transformer.TRF_105190A Phases=1,Windings=3,Buses=[BMT183161191.3 1007259.1.0 1007259.0.2],Conns=[wye wye wye],kvs=[7.967 0.12 0.12],kvas=[10.000000000 10.000000000 10.000000000],Taps=[1,1.000000000,1.000000000],XHL=1.735000000,XHT=1.735000000,XLT=1.388000000,%loadloss=1.800000000,%noloadloss=0.450000000 !1094
new transformer.TRF_105197A Phases=1,Windings=3,Buses=[BMT175027390.3 1007273.1.0 1007273.0.2],Conns=[wye wye wye],kvs=[7.967 0.12 0.12],kvas=[15.000000000 15.000000000 15.000000000],Taps=[1,1.000000000,1.000000000],XHL=1.921000000,XHT=1.921000000,XLT=1.537000000,%loadloss=1.600000000,%noloadloss=0.400000000 !144846
new transformer.TRF_1059725A Phases=1,Windings=3,Buses=[BMT180080808.2 11035271.1.0 11035271.0.2],Conns=[wye wye wye],kvs=[7.967 0.12 0.12],kvas=[10.000000000 10.000000000 10.000000000],Taps=[1,1.000000000,1.000000000],XHL=1.735000000,XHT=1.735000000,XLT=1.388000000,%loadloss=1.800000000,%noloadloss=0.450000000 !377970
new transformer.TRF_1059935 Phases=3,Windings=2,Buses=[BMT168008393.1.2.3 11190426.1.2.3.0],Conns=[delta,wye],kvs=[13.800000000,0.220000000],kvas=[30.000000000 30.000000000],Taps=[1,1.000000000],XHL=3.640000000,%loadloss=1.670000000,%noloadloss=0.433333000 !153915
new transformer.TRF_106709A Phases=1,Windings=3,Buses=[BMT183411310.1 1015169.1.0 1015169.0.2],Conns=[wye wye wye],kvs=[7.967 0.12 0.12],kvas=[35.000000000 35.000000000 35.000000000],Taps=[1,1.000000000,1.000000000],XHL=2.139000000,XHT=2.139000000,XLT=1.712000000,%loadloss=1.293000000,%noloadloss=0.342857000 !56394
new transformer.TRF_107892A Phases=1,Windings=3,Buses=[BMT98871103.2 1023653.1.0 1023653.0.2],Conns=[wye wye wye],kvs=[7.967 0.12 0.12],kvas=[15.000000000 15.000000000 15.000000000],Taps=[1,1.000000000,1.000000000],XHL=1.921000000,XHT=1.921000000,XLT=1.537000000,%loadloss=1.600000000,%noloadloss=0.400000000 !3296
new transformer.TRF_107906A Phases=1,Windings=3,Buses=[BMT182245241.3 1023681.1.0 1023681.0.2],Conns=[wye wye wye],kvs=[7.967 0.12 0.12],kvas=[10.000000000 10.000000000 10.000000000],Taps=[1,1.000000000,1.000000000],XHL=1.735000000,XHT=1.735000000,XLT=1.388000000,%loadloss=1.800000000,%noloadloss=0.450000000 !18754
new transformer.TRF_108494A Phases=1,Windings=3,Buses=[BMT169170372.3 1026838.1.0 1026838.0.2],Conns=[wye wye wye],kvs=[7.967 0.12 0.12],kvas=[10.000000000 10.000000000 10.000000000],Taps=[1,1.000000000,1.000000000],XHL=1.735000000,XHT=1.735000000,XLT=1.388000000,%loadloss=1.800000000,%noloadloss=0.450000000 !58447
new transformer.TRF_1085086 Phases=3,Windings=2,Buses=[BMT168546387.1.2.3 19714193.1.2.3.0],Conns=[delta,wye],kvs=[13.800000000,0.220000000],kvas=[45.000000000 45.000000000],Taps=[1,1.000000000],XHL=3.700000000,%loadloss=1.520000000,%noloadloss=0.377777000 !393137
new transformer.TRF_110503A Phases=1,Windings=3,Buses=[BMT180196968.3 1039739.1.0 1039739.0.2],Conns=[wye wye wye],kvs=[7.967 0.12 0.12],kvas=[15.000000000 15.000000000 15.000000000],Taps=[1,1.000000000,1.000000000],XHL=1.921000000,XHT=1.921000000,XLT=1.537000000,%loadloss=1.600000000,%noloadloss=0.400000000 !107655
new transformer.TRF_110531A Phases=1,Windings=3,Buses=[BMT98870382.2 1039998.1.0 1039998.0.2],Conns=[wye wye wye],kvs=[7.967 0.12 0.12],kvas=[25.000000000 25.000000000 25.000000000],Taps=[1,1.000000000,1.000000000],XHL=2.058000000,XHT=2.058000000,XLT=1.646000000,%loadloss=1.420000000,%noloadloss=0.320000000 !32389
new transformer.TRF_111119A Phases=1,Windings=3,Buses=[BMT98870249.3 1044422.1.0 1044422.0.2],Conns=[wye wye wye],kvs=[7.967 0.12 0.12],kvas=[35.000000000 35.000000000 35.000000000],Taps=[1,1.000000000,1.000000000],XHL=2.139000000,XHT=2.139000000,XLT=1.712000000,%loadloss=1.293000000,%noloadloss=0.342857000 !29393
new transformer.TRF_111126A Phases=1,Windings=3,Buses=[BMT129629754.3 1044471.1.0 1044471.0.2],Conns=[wye wye wye],kvs=[7.967 0.12 0.12],kvas=[15.000000000 15.000000000 15.000000000],Taps=[1,1.000000000,1.000000000],XHL=1.921000000,XHT=1.921000000,XLT=1.537000000,%loadloss=1.600000000,%noloadloss=0.400000000 !35824
new transformer.TRF_1118056A Phases=1,Windings=3,Buses=[BMT153373448.3 26841607.1.0 26841607.0.2],Conns=[wye wye wye],kvs=[7.967 0.12 0.12],kvas=[35.000000000 35.000000000 35.000000000],Taps=[1,1.000000000,1.000000000],XHL=2.139000000,XHT=2.139000000,XLT=1.712000000,%loadloss=1.293000000,%noloadloss=0.342857000 !289981
new transformer.TRF_111847A Phases=1,Windings=3,Buses=[BMT98870417.2 1049392.1.0 1049392.0.2],Conns=[wye wye wye],kvs=[7.967 0.12 0.12],kvas=[25.000000000 25.000000000 25.000000000],Taps=[1,1.000000000,1.000000000],XHL=2.058000000,XHT=2.058000000,XLT=1.646000000,%loadloss=1.420000000,%noloadloss=0.320000000 !32384
new transformer.TRF_112463A Phases=1,Windings=3,Buses=[BMT98870452.2 1054761.1.0 1054761.0.2],Conns=[wye wye wye],kvs=[7.967 0.12 0.12],kvas=[25.000000000 25.000000000 25.000000000],Taps=[1,1.000000000,1.000000000],XHL=2.058000000,XHT=2.058000000,XLT=1.646000000,%loadloss=1.420000000,%noloadloss=0.320000000 !32588
new transformer.TRF_113338A Phases=1,Windings=3,Buses=[BMT149464900.2 1061278.1.0 1061278.0.2],Conns=[wye wye wye],kvs=[7.967 0.12 0.12],kvas=[35.000000000 35.000000000 35.000000000],Taps=[1,1.000000000,1.000000000],XHL=2.139000000,XHT=2.139000000,XLT=1.712000000,%loadloss=1.293000000,%noloadloss=0.342857000 !55
new transformer.TRF_113387A Phases=1,Windings=3,Buses=[BMT164678905.1 1061670.1.0 1061670.0.2],Conns=[wye wye wye],kvs=[7.967 0.12 0.12],kvas=[35.000000000 35.000000000 35.000000000],Taps=[1,1.000000000,1.000000000],XHL=2.139000000,XHT=2.139000000,XLT=1.712000000,%loadloss=1.293000000,%noloadloss=0.342857000 !68119
new transformer.TRF_113415A Phases=1,Windings=3,Buses=[BMT176618147.2 1062006.1.0 1062006.0.2],Conns=[wye wye wye],kvs=[7.967 0.12 0.12],kvas=[35.000000000 35.000000000 35.000000000],Taps=[1,1.000000000,1.000000000],XHL=2.139000000,XHT=2.139000000,XLT=1.712000000,%loadloss=1.293000000,%noloadloss=0.342857000 !27506
new transformer.TRF_114444A Phases=1,Windings=3,Buses=[BMT171860743.2 1068726.1.0 1068726.0.2],Conns=[wye wye wye],kvs=[7.967 0.12 0.12],kvas=[35.000000000 35.000000000 35.000000000],Taps=[1,1.000000000,1.000000000],XHL=2.139000000,XHT=2.139000000,XLT=1.712000000,%loadloss=1.293000000,%noloadloss=0.342857000 !708
new transformer.TRF_114528 Phases=3,Windings=2,Buses=[BMT163282710.1.2.3 1069265.1.2.3.0],Conns=[delta,wye],kvs=[13.800000000,0.220000000],kvas=[45.000000000 45.000000000],Taps=[1,1.000000000],XHL=3.700000000,%loadloss=1.520000000,%noloadloss=0.377777000 !61887
new transformer.TRF_115501 Phases=3,Windings=2,Buses=[BMT163282704.1.2.3 1076279.1.2.3.0],Conns=[delta,wye],kvs=[13.800000000,0.220000000],kvas=[45.000000000 45.000000000],Taps=[1,1.000000000],XHL=3.700000000,%loadloss=1.520000000,%noloadloss=0.377777000 !57148
new transformer.TRF_115508A Phases=1,Windings=3,Buses=[BMT180623728.1 1076377.1.0 1076377.0.2],Conns=[wye wye wye],kvs=[7.967 0.12 0.12],kvas=[15.000000000 15.000000000 15.000000000],Taps=[1,1.000000000,1.000000000],XHL=1.921000000,XHT=1.921000000,XLT=1.537000000,%loadloss=1.600000000,%noloadloss=0.400000000 !110658
new transformer.TRF_1155583 Phases=3,Windings=2,Buses=[BMT182332900.1.2.3 33862439.1.2.3.0],Conns=[delta,wye],kvs=[13.800000000,0.220000000],kvas=[75.000000000 75.000000000],Taps=[1,1.000000000],XHL=3.770000000,%loadloss=1.340000000,%noloadloss=0.340000000 !160766
new transformer.TRF_115620 Phases=3,Windings=2,Buses=[BMT163282711.1.2.3 1077266.1.2.3.0],Conns=[delta,wye],kvs=[13.800000000,0.220000000],kvas=[45.000000000 45.000000000],Taps=[1,1.000000000],XHL=3.700000000,%loadloss=1.520000000,%noloadloss=0.377777000 !61053
new transformer.TRF_116565 Phases=3,Windings=2,Buses=[BMT177224757.1.2.3 1083804.1.2.3.0],Conns=[delta,wye],kvs=[13.800000000,0.220000000],kvas=[75.000000000 75.000000000],Taps=[1,1.000000000],XHL=3.770000000,%loadloss=1.340000000,%noloadloss=0.340000000 !59570
new transformer.TRF_11663 Phases=3,Windings=2,Buses=[BMT151287860.1.2.3 106583.1.2.3.0],Conns=[delta,wye],kvs=[13.800000000,0.220000000],kvas=[30.000000000 30.000000000],Taps=[1,1.000000000],XHL=3.640000000,%loadloss=1.670000000,%noloadloss=0.433333000 !152126
new transformer.TRF_116649 Phases=3,Windings=2,Buses=[BMT157588974.1.2.3 1084455.1.2.3.0],Conns=[delta,wye],kvs=[13.800000000,0.220000000],kvas=[30.000000000 30.000000000],Taps=[1,1.000000000],XHL=3.640000000,%loadloss=1.670000000,%noloadloss=0.433333000 !159626
new transformer.TRF_1176142 Phases=3,Windings=2,Buses=[BMT98853498.1.2.3 37186039.1.2.3.0],Conns=[delta,wye],kvs=[13.800000000,0.220000000],kvas=[75.000000000 75.000000000],Taps=[1,1.000000000],XHL=3.770000000,%loadloss=1.340000000,%noloadloss=0.340000000 !160868
new transformer.TRF_101550 Phases=3,Windings=2,Buses=[BMT166546686.1.2.3 978545.1.2.3.0],Conns=[delta,wye],kvs=[13.800000000,0.220000000],kvas=[75.000000000 75.000000000],Taps=[1,1.000000000],XHL=3.770000000,%loadloss=1.340000000,%noloadloss=0.340000000 !11046
new transformer.TRF_103300A Phases=1,Windings=3,Buses=[BMT150649229.1 995114.1.0 995114.0.2],Conns=[wye wye wye],kvs=[7.967 0.12 0.12],kvas=[35.000000000 35.000000000 35.000000000],Taps=[1,1.000000000,1.000000000],XHL=2.139000000,XHT=2.139000000,XLT=1.712000000,%loadloss=1.293000000,%noloadloss=0.342857000 !30063
new transformer.TRF_104252A Phases=1,Windings=3,Buses=[BMT159896373.2 1002702.1.0 1002702.0.2],Conns=[wye wye wye],kvs=[7.967 0.12 0.12],kvas=[35.000000000 35.000000000 35.000000000],Taps=[1,1.000000000,1.000000000],XHL=2.139000000,XHT=2.139000000,XLT=1.712000000,%loadloss=1.293000000,%noloadloss=0.342857000 !299077
new transformer.TRF_104315A Phases=1,Windings=3,Buses=[BMT98869703.1 1003080.1.0 1003080.0.2],Conns=[wye wye wye],kvs=[7.967 0.12 0.12],kvas=[10.000000000 10.000000000 10.000000000],Taps=[1,1.000000000,1.000000000],XHL=1.735000000,XHT=1.735000000,XLT=1.388000000,%loadloss=1.800000000,%noloadloss=0.450000000 !30705
new transformer.TRF_105246A Phases=1,Windings=3,Buses=[BMT175027387.3 1007427.1.0 1007427.0.2],Conns=[wye wye wye],kvs=[7.967 0.12 0.12],kvas=[10.000000000 10.000000000 10.000000000],Taps=[1,1.000000000,1.000000000],XHL=1.735000000,XHT=1.735000000,XLT=1.388000000,%loadloss=1.800000000,%noloadloss=0.450000000 !118603
new transformer.TRF_105302A Phases=1,Windings=3,Buses=[BMT175027381.3 1007539.1.0 1007539.0.2],Conns=[wye wye wye],kvs=[7.967 0.12 0.12],kvas=[10.000000000 10.000000000 10.000000000],Taps=[1,1.000000000,1.000000000],XHL=1.735000000,XHT=1.735000000,XLT=1.388000000,%loadloss=1.800000000,%noloadloss=0.450000000 !13177
new transformer.TRF_106149A Phases=1,Windings=3,Buses=[BMT152902832.3 1011900.1.0 1011900.0.2],Conns=[wye wye wye],kvs=[7.967 0.12 0.12],kvas=[10.000000000 10.000000000 10.000000000],Taps=[1,1.000000000,1.000000000],XHL=1.735000000,XHT=1.735000000,XLT=1.388000000,%loadloss=1.800000000,%noloadloss=0.450000000 !67386
new transformer.TRF_106191A Phases=1,Windings=3,Buses=[BMT152902833.3 1012075.1.0 1012075.0.2],Conns=[wye wye wye],kvs=[7.967 0.12 0.12],kvas=[5.000000000 5.000000000 5.000000000],Taps=[1,1.000000000,1.000000000],XHL=1.625000000,XHT=1.625000000,XLT=1.300000000,%loadloss=1.900000000,%noloadloss=0.600000000 !10579
new transformer.TRF_107115A Phases=1,Windings=3,Buses=[BMT98869724.3 1017864.1.0 1017864.0.2],Conns=[wye wye wye],kvs=[7.967 0.12 0.12],kvas=[5.000000000 5.000000000 5.000000000],Taps=[1,1.000000000,1.000000000],XHL=1.625000000,XHT=1.625000000,XLT=1.300000000,%loadloss=1.900000000,%noloadloss=0.600000000 !8222
new transformer.TRF_108284A Phases=1,Windings=3,Buses=[BMT183411283.1 1025543.1.0 1025543.0.2],Conns=[wye wye wye],kvs=[7.967 0.12 0.12],kvas=[35.000000000 35.000000000 35.000000000],Taps=[1,1.000000000,1.000000000],XHL=2.139000000,XHT=2.139000000,XLT=1.712000000,%loadloss=1.293000000,%noloadloss=0.342857000 !313457
new transformer.TRF_108340A Phases=1,Windings=3,Buses=[BMT98871110.2 1025732.1.0 1025732.0.2],Conns=[wye wye wye],kvs=[7.967 0.12 0.12],kvas=[35.000000000 35.000000000 35.000000000],Taps=[1,1.000000000,1.000000000],XHL=2.139000000,XHT=2.139000000,XLT=1.712000000,%loadloss=1.293000000,%noloadloss=0.342857000 !68931
new transformer.TRF_109173A Phases=1,Windings=3,Buses=[BMT167700870.1 1030835.1.0 1030835.0.2],Conns=[wye wye wye],kvs=[7.967 0.12 0.12],kvas=[10.000000000 10.000000000 10.000000000],Taps=[1,1.000000000,1.000000000],XHL=1.735000000,XHT=1.735000000,XLT=1.388000000,%loadloss=1.800000000,%noloadloss=0.450000000 !62896
new transformer.TRF_110230 Phases=3,Windings=2,Buses=[BMT151279575.1.2.3 1037737.1.2.3.0],Conns=[delta,wye],kvs=[13.800000000,0.220000000],kvas=[45.000000000 45.000000000],Taps=[1,1.000000000],XHL=3.700000000,%loadloss=1.520000000,%noloadloss=0.377777000 !153683
new transformer.TRF_1121549A Phases=1,Windings=3,Buses=[BMT170124635.3 27465202.1.0 27465202.0.2],Conns=[wye wye wye],kvs=[7.967 0.12 0.12],kvas=[15.000000000 15.000000000 15.000000000],Taps=[1,1.000000000,1.000000000],XHL=1.921000000,XHT=1.921000000,XLT=1.537000000,%loadloss=1.600000000,%noloadloss=0.400000000 !100335
new transformer.TRF_112162A Phases=1,Windings=3,Buses=[BMT176434900.1 1052374.1.0 1052374.0.2],Conns=[wye wye wye],kvs=[7.967 0.12 0.12],kvas=[35.000000000 35.000000000 35.000000000],Taps=[1,1.000000000,1.000000000],XHL=2.139000000,XHT=2.139000000,XLT=1.712000000,%loadloss=1.293000000,%noloadloss=0.342857000 !26778
new transformer.TRF_112183A Phases=1,Windings=3,Buses=[BMT180196972.3 1052591.1.0 1052591.0.2],Conns=[wye wye wye],kvs=[7.967 0.12 0.12],kvas=[15.000000000 15.000000000 15.000000000],Taps=[1,1.000000000,1.000000000],XHL=1.921000000,XHT=1.921000000,XLT=1.537000000,%loadloss=1.600000000,%noloadloss=0.400000000 !103324
new transformer.TRF_112239A Phases=1,Windings=3,Buses=[BMT180196960.3 1052780.1.0 1052780.0.2],Conns=[wye wye wye],kvs=[7.967 0.12 0.12],kvas=[10.000000000 10.000000000 10.000000000],Taps=[1,1.000000000,1.000000000],XHL=1.735000000,XHT=1.735000000,XLT=1.388000000,%loadloss=1.800000000,%noloadloss=0.450000000 !43177
new transformer.TRF_113499A Phases=1,Windings=3,Buses=[BMT139772460.3 1062608.1.0 1062608.0.2],Conns=[wye wye wye],kvs=[7.967 0.12 0.12],kvas=[35.000000000 35.000000000 35.000000000],Taps=[1,1.000000000,1.000000000],XHL=2.139000000,XHT=2.139000000,XLT=1.712000000,%loadloss=1.293000000,%noloadloss=0.342857000 !292562
new transformer.TRF_113534A Phases=1,Windings=3,Buses=[BMT180196958.3 1062881.1.0 1062881.0.2],Conns=[wye wye wye],kvs=[7.967 0.12 0.12],kvas=[15.000000000 15.000000000 15.000000000],Taps=[1,1.000000000,1.000000000],XHL=1.921000000,XHT=1.921000000,XLT=1.537000000,%loadloss=1.600000000,%noloadloss=0.400000000 !39435
new transformer.TRF_113548A Phases=1,Windings=3,Buses=[BMT180196929.3 1062909.1.0 1062909.0.2],Conns=[wye wye wye],kvs=[7.967 0.12 0.12],kvas=[15.000000000 15.000000000 15.000000000],Taps=[1,1.000000000,1.000000000],XHL=1.921000000,XHT=1.921000000,XLT=1.537000000,%loadloss=1.600000000,%noloadloss=0.400000000 !19686
new transformer.TRF_113583A Phases=1,Windings=3,Buses=[BMT182294225.1 1062979.1.0 1062979.0.2],Conns=[wye wye wye],kvs=[7.967 0.12 0.12],kvas=[35.000000000 35.000000000 35.000000000],Taps=[1,1.000000000,1.000000000],XHL=2.139000000,XHT=2.139000000,XLT=1.712000000,%loadloss=1.293000000,%noloadloss=0.342857000 !54421
new transformer.TRF_114682A Phases=1,Windings=3,Buses=[BMT98872279.1 1070476.1.0 1070476.0.2],Conns=[wye wye wye],kvs=[7.967 0.12 0.12],kvas=[25.000000000 25.000000000 25.000000000],Taps=[1,1.000000000,1.000000000],XHL=2.058000000,XHT=2.058000000,XLT=1.646000000,%loadloss=1.420000000,%noloadloss=0.320000000 !8283
new transformer.TRF_114696 Phases=3,Windings=2,Buses=[BMT163282709.1.2.3 1070679.1.2.3.0],Conns=[delta,wye],kvs=[13.800000000,0.220000000],kvas=[75.000000000 75.000000000],Taps=[1,1.000000000],XHL=3.770000000,%loadloss=1.340000000,%noloadloss=0.340000000 !180113
new transformer.TRF_114738 Phases=3,Windings=2,Buses=[BMT163282700.1.2.3 1070966.1.2.3.0],Conns=[delta,wye],kvs=[13.800000000,0.220000000],kvas=[45.000000000 45.000000000],Taps=[1,1.000000000],XHL=3.700000000,%loadloss=1.520000000,%noloadloss=0.377777000 !57151
new transformer.TRF_114752 Phases=3,Windings=2,Buses=[BMT163282693.1.2.3 1071176.1.2.3.0],Conns=[delta,wye],kvs=[13.800000000,0.220000000],kvas=[45.000000000 45.000000000],Taps=[1,1.000000000],XHL=3.700000000,%loadloss=1.520000000,%noloadloss=0.377777000 !57147
new transformer.TRF_1158481 Phases=3,Windings=2,Buses=[BMT150339001.1.2.3 34462290.1.2.3.0],Conns=[delta,wye],kvs=[13.800000000,0.220000000],kvas=[100.000000000 100.000000000],Taps=[1,1.000000000],XHL=3.810000000,%loadloss=1.220000000,%noloadloss=0.000000000 !212556
new transformer.TRF_115907 Phases=3,Windings=2,Buses=[BMT157588978.1.2.3 1079212.1.2.3.0],Conns=[delta,wye],kvs=[13.800000000,0.220000000],kvas=[30.000000000 30.000000000],Taps=[1,1.000000000],XHL=3.640000000,%loadloss=1.670000000,%noloadloss=0.433333000 !159920
new transformer.TRF_115935 Phases=3,Windings=2,Buses=[BMT160578160.1.2.3 1079492.1.2.3.0],Conns=[delta,wye],kvs=[13.800000000,0.220000000],kvas=[45.000000000 45.000000000],Taps=[1,1.000000000],XHL=3.700000000,%loadloss=1.520000000,%noloadloss=0.377777000 !57150
new transformer.TRF_11817A Phases=1,Windings=3,Buses=[BMT157171334.1 108116.1.0 108116.0.2],Conns=[wye wye wye],kvs=[7.967 0.12 0.12],kvas=[15.000000000 15.000000000 15.000000000],Taps=[1,1.000000000,1.000000000],XHL=1.921000000,XHT=1.921000000,XLT=1.537000000,%loadloss=1.600000000,%noloadloss=0.400000000 !52165
new transformer.TRF_1193628A Phases=1,Windings=3,Buses=[BMT98873448.2 43038732.1.0 43038732.0.2],Conns=[wye wye wye],kvs=[7.967 0.12 0.12],kvas=[5.000000000 5.000000000 5.000000000],Taps=[1,1.000000000,1.000000000],XHL=1.625000000,XHT=1.625000000,XLT=1.300000000,%loadloss=1.900000000,%noloadloss=0.600000000 !400732
new transformer.TRF_100003 Phases=3,Windings=2,Buses=[BMT150649226.1.2.3 964895.1.2.3.0],Conns=[delta,wye],kvs=[13.800000000,0.220000000],kvas=[75.000000000 75.000000000],Taps=[1,1.000000000],XHL=3.770000000,%loadloss=1.340000000,%noloadloss=0.340000000 !187357
new transformer.TRF_103412 Phases=3,Windings=2,Buses=[BMT168974917.1.2.3 996087.1.2.3.0],Conns=[delta,wye],kvs=[13.800000000,0.220000000],kvas=[75.000000000 75.000000000],Taps=[1,1.000000000],XHL=3.770000000,%loadloss=1.340000000,%noloadloss=0.340000000 !163133
new transformer.TRF_104840A Phases=1,Windings=3,Buses=[BMT183161201.3 1005628.1.0 1005628.0.2],Conns=[wye wye wye],kvs=[7.967 0.12 0.12],kvas=[25.000000000 25.000000000 25.000000000],Taps=[1,1.000000000,1.000000000],XHL=2.058000000,XHT=2.058000000,XLT=1.646000000,%loadloss=1.420000000,%noloadloss=0.320000000 !29912
new transformer.TRF_104847A Phases=1,Windings=3,Buses=[BMT181748797.1 1005642.1.0 1005642.0.2],Conns=[wye wye wye],kvs=[7.967 0.12 0.12],kvas=[35.000000000 35.000000000 35.000000000],Taps=[1,1.000000000,1.000000000],XHL=2.139000000,XHT=2.139000000,XLT=1.712000000,%loadloss=1.293000000,%noloadloss=0.342857000 !68554
new transformer.TRF_105477A Phases=1,Windings=3,Buses=[BMT175027393.3 1008169.1.0 1008169.0.2],Conns=[wye wye wye],kvs=[7.967 0.12 0.12],kvas=[10.000000000 10.000000000 10.000000000],Taps=[1,1.000000000,1.000000000],XHL=1.735000000,XHT=1.735000000,XLT=1.388000000,%loadloss=1.800000000,%noloadloss=0.450000000 !8888
new transformer.TRF_106065A Phases=1,Windings=3,Buses=[BMT159589213.3 1011452.1.0 1011452.0.2],Conns=[wye wye wye],kvs=[7.967 0.12 0.12],kvas=[5.000000000 5.000000000 5.000000000],Taps=[1,1.000000000,1.000000000],XHL=1.625000000,XHT=1.625000000,XLT=1.300000000,%loadloss=1.900000000,%noloadloss=0.600000000 !64393
new transformer.TRF_106086A Phases=1,Windings=3,Buses=[BMT163711333.3 1011613.1.0 1011613.0.2],Conns=[wye wye wye],kvs=[7.967 0.12 0.12],kvas=[5.000000000 5.000000000 5.000000000],Taps=[1,1.000000000,1.000000000],XHL=1.625000000,XHT=1.625000000,XLT=1.300000000,%loadloss=1.900000000,%noloadloss=0.600000000 !8516
new transformer.TRF_106793A Phases=1,Windings=3,Buses=[BMT183411314.1 1015561.1.0 1015561.0.2],Conns=[wye wye wye],kvs=[7.967 0.12 0.12],kvas=[10.000000000 10.000000000 10.000000000],Taps=[1,1.000000000,1.000000000],XHL=1.735000000,XHT=1.735000000,XLT=1.388000000,%loadloss=1.800000000,%noloadloss=0.450000000 !56304
new transformer.TRF_107430A Phases=1,Windings=3,Buses=[BMT152902830.3 1019880.1.0 1019880.0.2],Conns=[wye wye wye],kvs=[7.967 0.12 0.12],kvas=[10.000000000 10.000000000 10.000000000],Taps=[1,1.000000000,1.000000000],XHL=1.735000000,XHT=1.735000000,XLT=1.388000000,%loadloss=1.800000000,%noloadloss=0.450000000 !377386
new transformer.TRF_107437A Phases=1,Windings=3,Buses=[BMT152902828.3 1019887.1.0 1019887.0.2],Conns=[wye wye wye],kvs=[7.967 0.12 0.12],kvas=[15.000000000 15.000000000 15.000000000],Taps=[1,1.000000000,1.000000000],XHL=1.921000000,XHT=1.921000000,XLT=1.537000000,%loadloss=1.600000000,%noloadloss=0.400000000 !108104
new transformer.TRF_108074 Phases=3,Windings=2,Buses=[BMT182228414.1.2.3 1024689.1.2.3.0],Conns=[delta,wye],kvs=[13.800000000,0.220000000],kvas=[45.000000000 45.000000000],Taps=[1,1.000000000],XHL=3.700000000,%loadloss=1.520000000,%noloadloss=0.377777000 !57419
new transformer.TRF_108774 Phases=3,Windings=2,Buses=[BMT183157346.1.2.3 1028609.1.2.3.0],Conns=[delta,wye],kvs=[13.800000000,0.220000000],kvas=[45.000000000 45.000000000],Taps=[1,1.000000000],XHL=3.700000000,%loadloss=1.520000000,%noloadloss=0.377777000 !390955
new transformer.TRF_108830A Phases=1,Windings=3,Buses=[BMT183411280.1 1028896.1.0 1028896.0.2],Conns=[wye wye wye],kvs=[7.967 0.12 0.12],kvas=[25.000000000 25.000000000 25.000000000],Taps=[1,1.000000000,1.000000000],XHL=2.058000000,XHT=2.058000000,XLT=1.646000000,%loadloss=1.420000000,%noloadloss=0.320000000 !30706
new transformer.TRF_109397A Phases=1,Windings=3,Buses=[BMT180196970.3 1032501.1.0 1032501.0.2],Conns=[wye wye wye],kvs=[7.967 0.12 0.12],kvas=[10.000000000 10.000000000 10.000000000],Taps=[1,1.000000000,1.000000000],XHL=1.735000000,XHT=1.735000000,XLT=1.388000000,%loadloss=1.800000000,%noloadloss=0.450000000 !133804
new transformer.TRF_109453A Phases=1,Windings=3,Buses=[BMT98870375.2 1032613.1.0 1032613.0.2],Conns=[wye wye wye],kvs=[7.967 0.12 0.12],kvas=[25.000000000 25.000000000 25.000000000],Taps=[1,1.000000000,1.000000000],XHL=2.058000000,XHT=2.058000000,XLT=1.646000000,%loadloss=1.420000000,%noloadloss=0.320000000 !38385
new transformer.TRF_110160 Phases=3,Windings=2,Buses=[BMT151279578.1.2.3 1037303.1.2.3.0],Conns=[delta,wye],kvs=[13.800000000,0.220000000],kvas=[45.000000000 45.000000000],Taps=[1,1.000000000],XHL=3.700000000,%loadloss=1.520000000,%noloadloss=0.377777000 !69731
new transformer.TRF_111308A Phases=1,Windings=3,Buses=[BMT129629775.3 1045500.1.0 1045500.0.2],Conns=[wye wye wye],kvs=[7.967 0.12 0.12],kvas=[10.000000000 10.000000000 10.000000000],Taps=[1,1.000000000,1.000000000],XHL=1.735000000,XHT=1.735000000,XLT=1.388000000,%loadloss=1.800000000,%noloadloss=0.450000000 !67359
new transformer.TRF_111973A Phases=1,Windings=3,Buses=[BMT180196927.3 1050953.1.0 1050953.0.2],Conns=[wye wye wye],kvs=[7.967 0.12 0.12],kvas=[15.000000000 15.000000000 15.000000000],Taps=[1,1.000000000,1.000000000],XHL=1.921000000,XHT=1.921000000,XLT=1.537000000,%loadloss=1.600000000,%noloadloss=0.400000000 !23112
...