2024_89_CemigReconfigurationCases/1_SEsCemig_2/BETT305/BETT305CargaMT_Dez.dss
new load.3009007597M1 bus1=BMT165069619.1.2.3.0,Phases=3,kv=13.800000000,kW=14.07492,pf=0.92,Vminpu=0.93,Vmaxpu=1.5,model=1,daily=MT2_1,status=variable
new load.3009009258M1 bus1=BMT98876640.1.2.3.0,Phases=3,kv=13.800000000,kW=6.04658,pf=0.92,Vminpu=0.93,Vmaxpu=1.5,model=1,daily=MT1_1,status=variable
new load.3009010465M1 bus1=BMT98853022.1.2.3.0,Phases=3,kv=13.800000000,kW=94.15754,pf=0.92,Vminpu=0.93,Vmaxpu=1.5,model=1,daily=MT3_1,status=variable
new load.3009012172M1 bus1=BMT179839469.1.2.3.0,Phases=3,kv=13.800000000,kW=341.8059,pf=0.92,Vminpu=0.93,Vmaxpu=1.5,model=1,daily=MT5_1,status=variable
new load.3009013805M1 bus1=BMT98853540.1.2.3.0,Phases=3,kv=13.800000000,kW=862.74728,pf=0.92,Vminpu=0.93,Vmaxpu=1.5,model=1,daily=MT4_1,status=variable
new load.3009013906M1 bus1=BMT98852266.1.2.3.0,Phases=3,kv=13.800000000,kW=14.51182,pf=0.92,Vminpu=0.93,Vmaxpu=1.5,model=1,daily=MT1_1,status=variable
new load.3009017847M1 bus1=BMT98891256.1.2.3.0,Phases=3,kv=13.800000000,kW=119.02776,pf=0.92,Vminpu=0.93,Vmaxpu=1.5,model=1,daily=MT2_1,status=variable
new load.3009019992M1 bus1=BMT98853512.1.2.3.0,Phases=3,kv=13.800000000,kW=14.66632,pf=0.92,Vminpu=0.93,Vmaxpu=1.5,model=1,daily=MT2_1,status=variable
new load.3009020703M1 bus1=BMT98883577.1.2.3.0,Phases=3,kv=13.800000000,kW=7.01404,pf=0.92,Vminpu=0.93,Vmaxpu=1.5,model=1,daily=MT1_1,status=variable
new load.3009022182M1 bus1=BMT177567447.1.2.3.0,Phases=3,kv=13.800000000,kW=172.60486,pf=0.92,Vminpu=0.93,Vmaxpu=1.5,model=1,daily=MT4_1,status=variable
new load.3010000493M1 bus1=BMT98883150.1.2.3.0,Phases=3,kv=13.800000000,kW=29.924,pf=0.92,Vminpu=0.93,Vmaxpu=1.5,model=1,daily=MT2_1,status=variable
new load.3010111632M1 bus1=BMT98890710.1.2.3.0,Phases=3,kv=13.800000000,kW=28.03158,pf=0.92,Vminpu=0.93,Vmaxpu=1.5,model=1,daily=MT2_1,status=variable
new load.3010235539M1 bus1=BMT98853834.1.2.3.0,Phases=3,kv=13.800000000,kW=72.37056,pf=0.92,Vminpu=0.93,Vmaxpu=1.5,model=1,daily=MT2_1,status=variable
new load.3010482627M1 bus1=BMT165069721.1.2.3.0,Phases=3,kv=13.800000000,kW=68.80358,pf=0.92,Vminpu=0.93,Vmaxpu=1.5,model=1,daily=MT3_1,status=variable
new load.3010502828M1 bus1=BMT98852637.1.2.3.0,Phases=3,kv=13.800000000,kW=292.66808,pf=0.92,Vminpu=0.93,Vmaxpu=1.5,model=1,daily=MT3_1,status=variable
new load.3010830716M1 bus1=BMT165676071.1.2.3.0,Phases=3,kv=13.800000000,kW=54.17074,pf=0.92,Vminpu=0.93,Vmaxpu=1.5,model=1,daily=MT2_1,status=variable
new load.3011141758M1 bus1=BMT153102977.1.2.3.0,Phases=3,kv=13.800000000,kW=0.96746,pf=0.92,Vminpu=0.93,Vmaxpu=1.5,model=1,daily=MT1_1,status=variable
new load.3011232338M1 bus1=BMT150339010.1.2.3.0,Phases=3,kv=13.800000000,kW=89.478,pf=0.92,Vminpu=0.93,Vmaxpu=1.5,model=1,daily=MT3_1,status=variable
new load.3011381264M1 bus1=BMT165676067.1.2.3.0,Phases=3,kv=13.800000000,kW=7.13498,pf=0.92,Vminpu=0.93,Vmaxpu=1.5,model=1,daily=MT1_1,status=variable
new load.3011591467M1 bus1=BMT159993627.1.2.3.0,Phases=3,kv=13.800000000,kW=13.78622,pf=0.92,Vminpu=0.93,Vmaxpu=1.5,model=1,daily=MT1_1,status=variable
new load.3011772310M1 bus1=BMT133758571.1.2.3.0,Phases=3,kv=13.800000000,kW=7.8235,pf=0.92,Vminpu=0.93,Vmaxpu=1.5,model=1,daily=MT1_1,status=variable
new load.3011810040M1 bus1=BMT181702785.1.2.3.0,Phases=3,kv=13.800000000,kW=19.04256,pf=0.92,Vminpu=0.93,Vmaxpu=1.5,model=1,daily=MT2_1,status=variable
new load.3011904051M1 bus1=BMT165069648.1.2.3.0,Phases=3,kv=13.800000000,kW=21.58632,pf=0.92,Vminpu=0.93,Vmaxpu=1.5,model=1,daily=MT1_1,status=variable
new load.3011949672M1 bus1=BMT159913274.1.2.3.0,Phases=3,kv=13.800000000,kW=395.88852,pf=0.92,Vminpu=0.93,Vmaxpu=1.5,model=1,daily=MT4_1,status=variable
new load.3011986422M1 bus1=BMT150339001.1.2.3.0,Phases=3,kv=13.800000000,kW=54.81232,pf=0.92,Vminpu=0.93,Vmaxpu=1.5,model=1,daily=MT1_1,status=variable
new load.3012055460M1 bus1=BMT152163523.1.2.3.0,Phases=3,kv=13.800000000,kW=115.51554,pf=0.92,Vminpu=0.93,Vmaxpu=1.5,model=1,daily=MT3_1,status=variable
new load.3012147453M1 bus1=BMT176209988.1.2.3.0,Phases=3,kv=13.800000000,kW=13.61622,pf=0.92,Vminpu=0.93,Vmaxpu=1.5,model=1,daily=MT3_1,status=variable
new load.3012158472M1 bus1=BMT152163523.1.2.3.0,Phases=3,kv=13.800000000,kW=23.34208,pf=0.92,Vminpu=0.93,Vmaxpu=1.5,model=1,daily=MT3_1,status=variable
new load.3012189469M1 bus1=BMT152163523.1.2.3.0,Phases=3,kv=13.800000000,kW=68.40238,pf=0.92,Vminpu=0.93,Vmaxpu=1.5,model=1,daily=MT2_1,status=variable
new load.3012209219M1 bus1=BMT152163523.1.2.3.0,Phases=3,kv=13.800000000,kW=41.90286,pf=0.92,Vminpu=0.93,Vmaxpu=1.5,model=1,daily=MT1_1,status=variable
new load.3012228268M1 bus1=BMT165069725.1.2.3.0,Phases=3,kv=13.800000000,kW=249.72412,pf=0.92,Vminpu=0.93,Vmaxpu=1.5,model=1,daily=MT1_1,status=variable
new load.3012301426M1 bus1=BMT163292357.1.2.3.0,Phases=3,kv=13.800000000,kW=105.9168,pf=0.92,Vminpu=0.93,Vmaxpu=1.5,model=1,daily=MT2_1,status=variable
...